api/pglib_opf_case3012wp_mp__api.m
%%%%%%%%%%%%%%%%%%%%%%%%%%%%%%%%%%%%%%%%%%%%%%%%%%%%%%%%%%%%%%%%%%%%%%%%%%%
%%%%                                                                  %%%%%
%%%%    IEEE PES Power Grid Library - Optimal Power Flow - v17.07     %%%%%
%%%%          (https://github.com/power-grid-lib/pglib-opf)           %%%%%
%%%%             Benchmark Group - Active Power Increase              %%%%%
%%%%                         27 - June - 2017                         %%%%%
%%%%                                                                  %%%%%
%%%%%%%%%%%%%%%%%%%%%%%%%%%%%%%%%%%%%%%%%%%%%%%%%%%%%%%%%%%%%%%%%%%%%%%%%%%
function mpc = pglib_opf_case3012wp_mp__api
mpc.version = '2';
mpc.baseMVA = 100.0;

%% area data
%	area	refbus
mpc.areas = [
	1	 1;
];

%% bus data
%	bus_i	type	Pd	Qd	Gs	Bs	area	Vm	Va	baseKV	zone	Vmax	Vmin
mpc.bus = [
	1	 1	 0.00	 0.00	 0.0	 0.0	 1	    1.09848	   -0.26653	 220.0	 1	    1.11000	    0.95000;
	2	 1	 0.00	 0.00	 0.0	 0.0	 1	    1.10768	    3.45670	 220.0	 1	    1.11000	    0.95000;
	3	 1	 0.00	 0.00	 0.0	 0.0	 1	    1.06688	  -23.26144	 220.0	 1	    1.11000	    0.95000;
	4	 1	 0.00	 0.00	 0.0	 0.0	 1	    1.06681	  -23.27140	 220.0	 1	    1.11000	    0.95000;
	5	 1	 0.00	 0.00	 0.0	 0.0	 1	    1.07886	  -26.06559	 220.0	 1	    1.11000	    0.95000;
	6	 1	 0.00	 0.00	 0.0	 0.0	 1	    1.07820	   -2.67942	 220.0	 1	    1.11000	    0.95000;
	7	 1	 0.00	 0.00	 0.0	 0.0	 1	    1.07816	   -2.67946	 220.0	 1	    1.11000	    0.95000;
	8	 1	 0.00	 0.00	 0.0	 0.0	 1	    1.09091	  -11.91004	 220.0	 1	    1.11000	    0.95000;
	9	 1	 0.00	 0.00	 0.0	 0.0	 1	    1.09118	  -11.89132	 220.0	 1	    1.11000	    0.95000;
	10	 1	 0.00	 0.00	 0.0	 0.0	 1	    1.10200	  -15.85557	 220.0	 1	    1.11000	    0.95000;
	11	 1	 0.00	 0.00	 0.0	 0.0	 1	    1.02691	   -6.96398	 400.0	 1	    1.05000	    0.95000;
	12	 1	 0.00	 0.00	 0.0	 0.0	 1	    1.02698	   -6.95001	 400.0	 1	    1.05000	    0.95000;
	13	 1	 0.00	 0.00	 0.0	 0.0	 1	    1.01380	  -11.47938	 400.0	 1	    1.05000	    0.95000;
	14	 1	 0.00	 0.00	 0.0	 0.0	 1	    1.04373	  -11.67938	 220.0	 1	    1.11000	    0.95000;
	15	 1	 0.00	 0.00	 0.0	 0.0	 1	    1.04389	  -11.67233	 220.0	 1	    1.11000	    0.95000;
	16	 1	 0.00	 0.00	 0.0	 0.0	 1	    1.04388	  -11.65650	 220.0	 1	    1.11000	    0.95000;
	17	 1	 0.00	 0.00	 0.0	 0.0	 1	    1.03711	  -16.93864	 220.0	 1	    1.11000	    0.95000;
	18	 1	 0.00	 0.00	 0.0	 0.0	 1	    1.03460	  -17.03568	 220.0	 1	    1.11000	    0.95000;
	19	 1	 0.00	 0.00	 0.0	 0.0	 1	    1.03136	   -6.44187	 400.0	 1	    1.05000	    0.95000;
	20	 1	 0.00	 0.00	 0.0	 0.0	 1	    1.03140	   -6.43252	 400.0	 1	    1.05000	    0.95000;
	21	 1	 0.00	 0.00	 0.0	 0.0	 1	    1.02521	  -15.57113	 400.0	 1	    1.05000	    0.95000;
	22	 1	 0.00	 0.00	 0.0	 0.0	 1	    1.01894	  -11.13438	 400.0	 1	    1.05000	    0.95000;
	23	 1	 0.00	 0.00	 0.0	 0.0	 1	    1.01894	  -11.13438	 400.0	 1	    1.05000	    0.95000;
	24	 2	 11.59	 20.10	 0.0	 0.0	 1	    1.09237	  -16.77856	 220.0	 1	    1.11000	    0.95000;
	25	 2	 11.59	 20.10	 0.0	 0.0	 1	    1.09237	  -16.76539	 220.0	 1	    1.11000	    0.95000;
	26	 1	 0.00	 0.00	 0.0	 0.0	 1	    1.08778	   -1.52540	 220.0	 1	    1.11000	    0.95000;
	27	 1	 0.00	 0.00	 0.0	 0.0	 1	    1.08788	   -1.52960	 220.0	 1	    1.11000	    0.95000;
	28	 1	 0.00	 0.00	 0.0	 0.0	 1	    1.03794	  -12.62186	 220.0	 1	    1.11000	    0.95000;
	29	 1	 0.00	 0.00	 0.0	 0.0	 1	    1.03790	  -12.62062	 220.0	 1	    1.11000	    0.95000;
	30	 1	 0.00	 0.00	 0.0	 0.0	 1	    1.04120	  -11.03080	 220.0	 1	    1.11000	    0.95000;
	31	 1	 0.00	 0.00	 0.0	 0.0	 1	    1.04116	  -11.04764	 220.0	 1	    1.11000	    0.95000;
	32	 1	 0.00	 0.00	 0.0	 0.0	 1	    1.08752	   -0.16373	 220.0	 1	    1.11000	    0.95000;
	33	 1	 0.00	 0.00	 0.0	 0.0	 1	    1.08742	   -0.18465	 220.0	 1	    1.11000	    0.95000;
	34	 1	 0.00	 0.00	 0.0	 0.0	 1	    1.03089	   -8.59431	 400.0	 1	    1.05000	    0.95000;
	35	 1	 0.00	 0.00	 0.0	 0.0	 1	    1.03085	   -8.59771	 400.0	 1	    1.05000	    0.95000;
	36	 1	 0.00	 0.00	 0.0	 0.0	 1	    1.01262	  -10.85799	 400.0	 1	    1.05000	    0.95000;
	37	 3	 56.13	 86.21	 0.0	 0.0	 1	    1.10081	   -0.00000	 220.0	 1	    1.11000	    0.95000;
	38	 2	 62.89	 89.93	 0.0	 0.0	 1	    1.11000	    3.94474	 220.0	 1	    1.11000	    0.95000;
	39	 2	 23.18	 40.19	 0.0	 0.0	 1	    1.10999	    3.91477	 220.0	 1	    1.11000	    0.95000;
	40	 2	 69.52	 120.57	 0.0	 0.0	 1	    1.04751	    1.42936	 400.0	 1	    1.05000	    0.95000;
	41	 2	 69.52	 120.57	 0.0	 0.0	 1	    1.04753	    1.43333	 400.0	 1	    1.05000	    0.95000;
	42	 1	 0.00	 0.00	 0.0	 0.0	 1	    1.03150	  -12.08662	 220.0	 1	    1.11000	    0.95000;
	43	 1	 0.00	 0.00	 0.0	 0.0	 1	    1.03141	  -12.09746	 220.0	 1	    1.11000	    0.95000;
	44	 1	 0.00	 0.00	 0.0	 0.0	 1	    1.05000	   -0.14894	 400.0	 1	    1.05000	    0.95000;
	45	 1	 0.00	 0.00	 0.0	 0.0	 1	    1.04999	   -0.15183	 400.0	 1	    1.05000	    0.95000;
	46	 1	 0.00	 0.00	 0.0	 0.0	 1	    1.04056	  -11.99416	 220.0	 1	    1.11000	    0.95000;
	47	 1	 0.00	 0.00	 0.0	 0.0	 1	    1.06395	   -3.26179	 220.0	 1	    1.11000	    0.95000;
	48	 1	 0.00	 0.00	 0.0	 0.0	 1	    1.06396	   -3.25890	 220.0	 1	    1.11000	    0.95000;
	49	 1	 0.00	 0.00	 0.0	 0.0	 1	    1.09672	   -2.86021	 220.0	 2	    1.11000	    0.95000;
	50	 1	 0.00	 0.00	 0.0	 0.0	 1	    1.09238	   -4.17073	 220.0	 2	    1.11000	    0.95000;
	51	 1	 0.00	 0.00	 0.0	 0.0	 1	    1.10602	   -2.25300	 220.0	 2	    1.11000	    0.95000;
	52	 1	 0.00	 0.00	 0.0	 0.0	 1	    1.10598	   -2.26069	 220.0	 2	    1.11000	    0.95000;
	53	 1	 0.00	 0.00	 0.0	 0.0	 1	    1.07655	   -3.55142	 220.0	 2	    1.11000	    0.95000;
	54	 1	 3.72	 1.00	 0.0	 0.0	 1	    1.09873	   -3.58788	 220.0	 2	    1.11000	    0.95000;
	55	 1	 0.00	 0.00	 0.0	 0.0	 1	    1.09879	   -3.58388	 220.0	 2	    1.11000	    0.95000;
	56	 1	 0.00	 0.00	 0.0	 0.0	 1	    1.03398	   -3.00207	 400.0	 2	    1.05000	    0.95000;
	57	 2	 30.12	 60.29	 0.0	 0.0	 1	    1.10999	   -1.50940	 220.0	 2	    1.11000	    0.95000;
	58	 2	 62.57	 120.57	 0.0	 0.0	 1	    1.10995	   -1.52277	 220.0	 2	    1.11000	    0.95000;
	59	 2	 15.06	 30.14	 0.0	 0.0	 1	    1.11000	   -1.51403	 220.0	 2	    1.11000	    0.95000;
	60	 2	 30.12	 50.24	 0.0	 0.0	 1	    1.04307	   -1.03882	 400.0	 2	    1.05000	    0.95000;
	61	 2	 30.12	 50.24	 0.0	 0.0	 1	    1.04312	   -1.02264	 400.0	 2	    1.05000	    0.95000;
	62	 1	 0.00	 0.00	 0.0	 0.0	 1	    1.09265	   -4.40288	 220.0	 2	    1.11000	    0.95000;
	63	 1	 0.00	 0.00	 0.0	 0.0	 1	    1.04737	   -6.76579	 400.0	 2	    1.05000	    0.95000;
	64	 1	 0.00	 0.00	 0.0	 0.0	 1	    1.04737	   -6.76545	 400.0	 2	    1.05000	    0.95000;
	65	 1	 0.00	 0.00	 0.0	 0.0	 1	    1.04321	   -2.07027	 400.0	 2	    1.05000	    0.95000;
	66	 1	 0.00	 0.00	 0.0	 0.0	 1	    1.08147	   -2.08927	 220.0	 2	    1.11000	    0.95000;
	67	 1	 0.00	 0.00	 0.0	 0.0	 1	    1.08144	   -2.08084	 220.0	 2	    1.11000	    0.95000;
	68	 1	 0.00	 0.00	 0.0	 0.0	 1	    1.04134	   -2.55693	 400.0	 2	    1.05000	    0.95000;
	69	 1	 0.00	 0.00	 0.0	 0.0	 1	    1.04133	   -2.55962	 400.0	 2	    1.05000	    0.95000;
	70	 2	 15.06	 30.14	 0.0	 0.0	 1	    1.11000	   -1.65406	 220.0	 2	    1.11000	    0.95000;
	71	 2	 15.06	 30.14	 0.0	 0.0	 1	    1.10997	   -1.66213	 220.0	 2	    1.11000	    0.95000;
	72	 2	 15.06	 30.14	 0.0	 0.0	 1	    1.04093	   -2.32562	 400.0	 2	    1.05000	    0.95000;
	73	 2	 30.12	 60.29	 0.0	 0.0	 1	    1.04092	   -2.32630	 400.0	 2	    1.05000	    0.95000;
	74	 2	 172.63	 60.29	 0.0	 0.0	 1	    1.10418	   -3.28729	 220.0	 2	    1.11000	    0.95000;
	75	 1	 33.60	 10.05	 0.0	 0.0	 1	    1.10416	   -3.27887	 220.0	 2	    1.11000	    0.95000;
	76	 1	 0.00	 0.00	 0.0	 0.0	 1	    1.09515	   -4.31975	 220.0	 2	    1.11000	    0.95000;
	77	 1	 0.00	 0.00	 0.0	 0.0	 1	    1.09516	   -4.31977	 220.0	 2	    1.11000	    0.95000;
	78	 1	 0.00	 0.00	 0.0	 0.0	 1	    1.10125	   -3.64250	 220.0	 2	    1.11000	    0.95000;
	79	 1	 0.00	 0.00	 0.0	 0.0	 1	    1.10127	   -3.64198	 220.0	 2	    1.11000	    0.95000;
	80	 1	 0.00	 0.00	 0.0	 0.0	 1	    1.05000	   -4.40949	 400.0	 2	    1.05000	    0.95000;
	81	 1	 0.00	 0.00	 0.0	 0.0	 1	    1.04998	   -4.42037	 400.0	 2	    1.05000	    0.95000;
	82	 1	 0.00	 0.00	 0.0	 0.0	 1	    1.10533	   -1.52926	 220.0	 2	    1.11000	    0.95000;
	83	 1	 0.00	 0.00	 0.0	 0.0	 1	    1.10525	   -1.82096	 220.0	 2	    1.11000	    0.95000;
	84	 1	 0.00	 0.00	 0.0	 0.0	 1	    1.08152	   -0.68167	 220.0	 2	    1.11000	    0.95000;
	85	 1	 0.00	 0.00	 0.0	 0.0	 1	    1.08738	   -1.56525	 220.0	 3	    1.11000	    0.95000;
	86	 1	 9.35	 0.00	 0.0	 0.0	 1	    1.09547	   -2.56999	 220.0	 3	    1.11000	    0.95000;
	87	 1	 8.18	 0.00	 0.0	 0.0	 1	    1.09549	   -2.56589	 220.0	 3	    1.11000	    0.95000;
	88	 1	 0.00	 0.00	 0.0	 0.0	 1	    1.09364	    2.97794	 220.0	 3	    1.11000	    0.95000;
	89	 1	 0.00	 0.00	 0.0	 0.0	 1	    1.09378	    2.99610	 220.0	 3	    1.11000	    0.95000;
	90	 1	 0.00	 0.00	 0.0	 0.0	 1	    1.09775	   -0.78272	 220.0	 3	    1.11000	    0.95000;
	91	 1	 0.00	 0.00	 0.0	 0.0	 1	    1.09780	   -0.78313	 220.0	 3	    1.11000	    0.95000;
	92	 1	 0.00	 0.00	 0.0	 0.0	 1	    1.06414	    0.78780	 220.0	 3	    1.11000	    0.95000;
	93	 1	 0.00	 0.00	 0.0	 0.0	 1	    1.06393	    0.78543	 220.0	 3	    1.11000	    0.95000;
	94	 2	 32.44	 70.33	 0.0	 0.0	 1	    1.10481	    4.17696	 220.0	 3	    1.11000	    0.95000;
	95	 2	 48.66	 103.49	 0.0	 0.0	 1	    1.09880	    3.41779	 220.0	 3	    1.11000	    0.95000;
	96	 1	 7.72	 -24.99	 0.0	 0.0	 1	    1.08765	    1.64737	 220.0	 3	    1.11000	    0.95000;
	97	 1	 0.00	 0.00	 0.0	 0.0	 1	    1.08764	    1.65308	 220.0	 3	    1.11000	    0.95000;
	98	 2	 37.07	 142.68	 0.0	 0.0	 1	    1.05000	   -3.31022	 400.0	 3	    1.05000	    0.95000;
	99	 1	 0.00	 0.00	 0.0	 0.0	 1	    1.04995	   -3.32841	 400.0	 3	    1.05000	    0.95000;
	100	 1	 0.00	 0.00	 0.0	 0.0	 1	    1.05723	   -7.23706	 220.0	 3	    1.11000	    0.95000;
	101	 1	 0.00	 0.00	 0.0	 0.0	 1	    1.08160	    1.11181	 220.0	 3	    1.11000	    0.95000;
	102	 1	 0.00	 0.00	 0.0	 0.0	 1	    1.08171	    1.12918	 220.0	 3	    1.11000	    0.95000;
	103	 1	 52.02	 7.94	 0.0	 0.0	 1	    1.08970	   -1.29525	 220.0	 3	    1.11000	    0.95000;
	104	 1	 0.00	 0.00	 0.0	 0.0	 1	    1.08962	   -1.30003	 220.0	 3	    1.11000	    0.95000;
	105	 1	 0.00	 0.00	 0.0	 0.0	 1	    1.09517	    1.89869	 220.0	 3	    1.11000	    0.95000;
	106	 1	 0.00	 0.00	 0.0	 0.0	 1	    1.09511	    1.90533	 220.0	 3	    1.11000	    0.95000;
	107	 1	 0.00	 0.00	 0.0	 0.0	 1	    1.09506	   -0.83593	 220.0	 3	    1.11000	    0.95000;
	108	 1	 0.00	 0.00	 0.0	 0.0	 1	    1.09505	   -0.83770	 220.0	 3	    1.11000	    0.95000;
	109	 1	 0.00	 0.00	 0.0	 0.0	 1	    1.04280	   -0.02882	 400.0	 3	    1.05000	    0.95000;
	110	 1	 0.00	 0.00	 0.0	 0.0	 1	    1.04281	   -0.03112	 400.0	 3	    1.05000	    0.95000;
	111	 1	 0.00	 0.00	 0.0	 0.0	 1	    1.08583	    1.35022	 220.0	 3	    1.11000	    0.95000;
	112	 1	 0.00	 0.00	 0.0	 0.0	 1	    1.08569	    1.35034	 220.0	 3	    1.11000	    0.95000;
	113	 1	 0.00	 0.00	 0.0	 0.0	 1	    1.06959	   -3.19200	 220.0	 3	    1.11000	    0.95000;
	114	 1	 0.00	 0.00	 0.0	 0.0	 1	    1.06954	   -3.21221	 220.0	 3	    1.11000	    0.95000;
	115	 2	 33.85	 18.51	 0.0	 0.0	 1	    1.09908	    1.27032	 220.0	 3	    1.11000	    0.95000;
	116	 1	 0.00	 0.00	 0.0	 0.0	 1	    1.09902	    1.25585	 220.0	 3	    1.11000	    0.95000;
	117	 1	 0.00	 0.00	 0.0	 0.0	 1	    1.09553	   -2.54667	 220.0	 3	    1.11000	    0.95000;
	118	 1	 0.00	 0.00	 0.0	 0.0	 1	    1.09552	   -2.54805	 220.0	 3	    1.11000	    0.95000;
	119	 1	 0.00	 0.00	 0.0	 0.0	 1	    1.05260	    0.68786	 220.0	 3	    1.11000	    0.95000;
	120	 1	 0.00	 0.00	 0.0	 0.0	 1	    1.05261	    0.69117	 220.0	 3	    1.11000	    0.95000;
	121	 2	 0.00	 0.00	 0.0	 0.0	 1	    1.07884	    1.06484	 220.0	 3	    1.11000	    0.95000;
	122	 2	 11.59	 44.21	 0.0	 0.0	 1	    1.07869	    1.06684	 220.0	 3	    1.11000	    0.95000;
	123	 2	 8.11	 18.09	 0.0	 0.0	 1	    1.09730	    1.84658	 220.0	 3	    1.11000	    0.95000;
	124	 2	 9.27	 21.10	 0.0	 0.0	 1	    1.09725	    1.84551	 220.0	 3	    1.11000	    0.95000;
	125	 1	 0.00	 0.00	 0.0	 0.0	 1	    1.09014	   -0.38222	 220.0	 3	    1.11000	    0.95000;
	126	 1	 82.49	 7.94	 0.0	 0.0	 1	    1.09022	   -0.38400	 220.0	 3	    1.11000	    0.95000;
	127	 1	 0.00	 0.00	 0.0	 0.0	 1	    1.06162	   -0.33305	 220.0	 3	    1.11000	    0.95000;
	128	 1	 0.00	 0.00	 0.0	 0.0	 1	    1.07762	    0.75371	 220.0	 3	    1.11000	    0.95000;
	129	 1	 0.00	 0.00	 0.0	 0.0	 1	    1.07767	    0.75840	 220.0	 3	    1.11000	    0.95000;
	130	 1	 0.00	 0.00	 0.0	 0.0	 1	    1.08708	    2.05594	 220.0	 3	    1.11000	    0.95000;
	131	 1	 0.00	 0.00	 0.0	 0.0	 1	    1.08719	    2.07238	 220.0	 3	    1.11000	    0.95000;
	132	 1	 0.00	 0.00	 0.0	 0.0	 1	    1.04100	   -3.13303	 400.0	 3	    1.05000	    0.95000;
	133	 1	 0.00	 0.00	 0.0	 0.0	 1	    1.04100	   -3.13303	 400.0	 3	    1.05000	    0.95000;
	134	 2	 0.00	 0.00	 0.0	 0.0	 1	    1.09762	    2.30414	 220.0	 3	    1.11000	    0.95000;
	135	 2	 10.42	 20.10	 0.0	 0.0	 1	    1.09763	    2.30803	 220.0	 3	    1.11000	    0.95000;
	136	 2	 6.95	 15.07	 0.0	 0.0	 1	    1.08456	    0.79758	 220.0	 3	    1.11000	    0.95000;
	137	 1	 0.00	 0.00	 0.0	 0.0	 1	    1.08449	    0.79422	 220.0	 3	    1.11000	    0.95000;
	138	 1	 0.00	 0.00	 0.0	 0.0	 1	    1.04865	   -4.58345	 400.0	 3	    1.05000	    0.95000;
	139	 1	 0.00	 0.00	 0.0	 0.0	 1	    1.04868	   -4.58992	 400.0	 3	    1.05000	    0.95000;
	140	 1	 0.00	 0.00	 0.0	 0.0	 1	    1.04999	   -2.82279	 400.0	 3	    1.05000	    0.95000;
	141	 1	 0.00	 0.00	 0.0	 0.0	 1	    1.05000	   -2.81846	 400.0	 3	    1.05000	    0.95000;
	142	 1	 0.00	 0.00	 0.0	 0.0	 1	    1.05923	   -0.56721	 220.0	 3	    1.11000	    0.95000;
	143	 1	 0.00	 0.00	 0.0	 0.0	 1	    1.05932	   -0.56256	 220.0	 3	    1.11000	    0.95000;
	144	 2	 21.15	 15.86	 0.0	 0.0	 1	    1.08509	    0.35994	 220.0	 3	    1.11000	    0.95000;
	145	 2	 47.29	 43.07	 0.0	 0.0	 1	    1.08526	    0.38468	 220.0	 3	    1.11000	    0.95000;
	146	 2	 32.44	 66.31	 0.0	 0.0	 1	    1.04511	   -2.80614	 400.0	 3	    1.05000	    0.95000;
	147	 1	 0.00	 0.00	 0.0	 0.0	 1	    1.04505	   -2.80253	 400.0	 3	    1.05000	    0.95000;
	148	 1	 0.00	 0.00	 0.0	 0.0	 1	    1.08790	   -1.39163	 220.0	 3	    1.11000	    0.95000;
	149	 1	 0.00	 0.00	 0.0	 0.0	 1	    1.08796	   -1.38339	 220.0	 3	    1.11000	    0.95000;
	150	 1	 0.00	 0.00	 0.0	 0.0	 1	    1.09289	    2.24785	 220.0	 3	    1.11000	    0.95000;
	151	 1	 0.00	 0.00	 0.0	 0.0	 1	    1.09173	   -0.93947	 220.0	 3	    1.11000	    0.95000;
	152	 2	 0.00	 0.00	 0.0	 0.0	 1	    1.06417	    0.78757	 220.0	 3	    1.11000	    0.95000;
	153	 2	 0.00	 0.00	 0.0	 0.0	 1	    1.06396	    0.78520	 220.0	 3	    1.11000	    0.95000;
	154	 2	 9.04	 20.10	 0.0	 0.0	 1	    1.09664	   -2.55370	 220.0	 4	    1.11000	    0.95000;
	155	 2	 9.27	 20.10	 0.0	 0.0	 1	    1.09660	   -2.56548	 220.0	 4	    1.11000	    0.95000;
	156	 1	 0.00	 0.00	 0.0	 0.0	 1	    1.08529	  -10.63542	 220.0	 4	    1.11000	    0.95000;
	157	 1	 0.00	 0.00	 0.0	 0.0	 1	    1.08525	  -10.63921	 220.0	 4	    1.11000	    0.95000;
	158	 1	 0.00	 0.00	 0.0	 0.0	 1	    1.07407	  -11.98608	 220.0	 4	    1.11000	    0.95000;
	159	 1	 0.00	 0.00	 0.0	 0.0	 1	    1.09922	   -8.62072	 220.0	 4	    1.11000	    0.95000;
	160	 1	 0.00	 0.00	 0.0	 0.0	 1	    1.09916	   -8.63171	 220.0	 4	    1.11000	    0.95000;
	161	 1	 0.00	 0.00	 0.0	 0.0	 1	    1.04026	   -7.64311	 400.0	 4	    1.05000	    0.95000;
	162	 1	 0.00	 0.00	 0.0	 0.0	 1	    1.04024	   -7.64816	 400.0	 4	    1.05000	    0.95000;
	163	 1	 0.00	 0.00	 0.0	 0.0	 1	    1.05259	  -12.95120	 220.0	 4	    1.11000	    0.95000;
	164	 1	 0.00	 0.00	 0.0	 0.0	 1	    1.09960	  -16.56909	 220.0	 4	    1.11000	    0.95000;
	165	 1	 0.00	 0.00	 0.0	 0.0	 1	    1.09960	  -16.56909	 220.0	 4	    1.11000	    0.95000;
	166	 1	 0.00	 0.00	 0.0	 0.0	 1	    1.10462	  -14.93935	 220.0	 4	    1.11000	    0.95000;
	167	 1	 0.00	 0.00	 0.0	 0.0	 1	    1.10462	  -14.93935	 220.0	 4	    1.11000	    0.95000;
	168	 1	 0.00	 0.00	 0.0	 0.0	 1	    1.07332	  -12.10768	 220.0	 4	    1.11000	    0.95000;
	169	 2	 0.00	 0.00	 0.0	 0.0	 1	    1.08535	   -5.96796	 220.0	 4	    1.11000	    0.95000;
	170	 2	 0.00	 0.00	 0.0	 0.0	 1	    1.08541	   -5.97364	 220.0	 4	    1.11000	    0.95000;
	171	 1	 0.00	 0.00	 0.0	 0.0	 1	    1.10999	   -3.89572	 220.0	 4	    1.11000	    0.95000;
	172	 2	 13.91	 30.14	 0.0	 0.0	 1	    1.10592	  -14.41576	 220.0	 4	    1.11000	    0.95000;
	173	 2	 10.83	 2.43	 0.0	 0.0	 1	    1.10575	  -14.41462	 220.0	 4	    1.11000	    0.95000;
	174	 2	 13.91	 30.14	 0.0	 0.0	 1	    1.01575	  -11.28237	 400.0	 4	    1.05000	    0.95000;
	175	 2	 27.80	 60.29	 0.0	 0.0	 1	    1.01578	  -11.27499	 400.0	 4	    1.05000	    0.95000;
	176	 1	 0.00	 0.00	 0.0	 0.0	 1	    1.03588	  -13.93885	 220.0	 4	    1.11000	    0.95000;
	177	 1	 0.00	 0.00	 0.0	 0.0	 1	    1.03594	  -13.93893	 220.0	 4	    1.11000	    0.95000;
	178	 1	 0.00	 0.00	 0.0	 0.0	 1	    1.08215	  -11.72476	 220.0	 4	    1.11000	    0.95000;
	179	 1	 0.00	 0.00	 0.0	 0.0	 1	    1.08218	  -11.72737	 220.0	 4	    1.11000	    0.95000;
	180	 2	 30.12	 64.30	 0.0	 0.0	 1	    1.10999	   -5.19322	 220.0	 4	    1.11000	    0.95000;
	181	 2	 30.12	 64.30	 0.0	 0.0	 1	    1.11000	   -5.18468	 220.0	 4	    1.11000	    0.95000;
	182	 2	 30.12	 64.51	 0.0	 0.0	 1	    1.11000	   -5.18426	 220.0	 4	    1.11000	    0.95000;
	183	 2	 30.12	 64.51	 0.0	 0.0	 1	    1.05000	   -3.00393	 400.0	 4	    1.05000	    0.95000;
	184	 1	 0.00	 0.00	 0.0	 0.0	 1	    1.04994	   -3.00912	 400.0	 4	    1.05000	    0.95000;
	185	 1	 0.00	 0.00	 0.0	 0.0	 1	    1.10150	  -16.39638	 220.0	 4	    1.11000	    0.95000;
	186	 1	 0.00	 0.00	 0.0	 0.0	 1	    1.10150	  -16.39638	 220.0	 4	    1.11000	    0.95000;
	187	 1	 0.00	 0.00	 0.0	 0.0	 1	    1.03030	   -9.43448	 400.0	 4	    1.05000	    0.95000;
	188	 1	 0.00	 0.00	 0.0	 0.0	 1	    1.00971	  -14.07923	 400.0	 4	    1.05000	    0.95000;
	189	 1	 0.00	 0.00	 0.0	 0.0	 1	    1.03825	   -7.81467	 400.0	 4	    1.05000	    0.95000;
	190	 1	 0.00	 0.00	 0.0	 0.0	 1	    1.03825	   -7.81139	 400.0	 4	    1.05000	    0.95000;
	191	 2	 13.91	 30.14	 0.0	 0.0	 1	    1.08714	   -6.00343	 220.0	 4	    1.11000	    0.95000;
	192	 2	 16.90	 30.65	 0.0	 0.0	 1	    1.08722	   -6.01607	 220.0	 4	    1.11000	    0.95000;
	193	 2	 44.02	 64.30	 0.0	 0.0	 1	    1.00489	   -0.35719	 400.0	 4	    1.05000	    0.95000;
	194	 1	 0.00	 0.00	 0.0	 0.0	 1	    1.03496	  -18.48870	 220.0	 4	    1.11000	    0.95000;
	195	 1	 0.00	 0.00	 0.0	 0.0	 1	    1.03498	  -18.49128	 220.0	 4	    1.11000	    0.95000;
	196	 1	 0.00	 0.00	 0.0	 0.0	 1	    1.10048	  -16.71120	 220.0	 4	    1.11000	    0.95000;
	197	 1	 0.00	 0.00	 0.0	 0.0	 1	    1.10050	  -16.71259	 220.0	 4	    1.11000	    0.95000;
	198	 1	 0.00	 0.00	 0.0	 0.0	 1	    1.04914	  -14.00224	 220.0	 4	    1.11000	    0.95000;
	199	 1	 0.00	 0.00	 0.0	 0.0	 1	    1.04915	  -14.00155	 220.0	 4	    1.11000	    0.95000;
	200	 1	 0.00	 0.00	 0.0	 0.0	 1	    0.99505	  -14.14103	 400.0	 4	    1.05000	    0.95000;
...
];

%% generator data
%	bus	Pg	Qg	Qmax	Qmin	Vg	mBase	status	Pmax	Pmin	Pc1	Pc2	Qc1min	Qc1max	Qc2min	Qc2max	ramp_agc	ramp_10	ramp_30	ramp_q	apf
mpc.gen = [
	24	 55.0	 73.095	 218.0	 -218.0	 1.09237	 235.3	 1	 435	 55.0	 0.0	 0.0	 0.0	 0.0	 0.0	 0.0	 0.0	 0.0	 0.0	 0.0	 0.0; % NG
	25	 221.0	 11.423	 124.0	 -111.0	 1.09237	 235.3	 1	 221	 67.5	 0.0	 0.0	 0.0	 0.0	 0.0	 0.0	 0.0	 0.0	 0.0	 0.0	 0.0; % NG
	37	 120.0	 43.835	 302.0	 -302.0	 1.10081	 426.0	 1	 604	 120.0	 0.0	 0.0	 0.0	 0.0	 0.0	 0.0	 0.0	 0.0	 0.0	 0.0	 0.0; % NG
	37	 120.0	 39.121	 190.0	 -138.0	 1.10081	 426.0	 1	 275	 120.0	 0.0	 0.0	 0.0	 0.0	 0.0	 0.0	 0.0	 0.0	 0.0	 0.0	 0.0; % NG
	38	 286.0	 22.651	 190.0	 -143.0	 1.11	 426.0	 1	 286	 120.0	 0.0	 0.0	 0.0	 0.0	 0.0	 0.0	 0.0	 0.0	 0.0	 0.0	 0.0; % NG
	38	 749.0	 -4.304	 375.0	 -375.0	 1.11	 426.0	 1	 749	 120.0	 0.0	 0.0	 0.0	 0.0	 0.0	 0.0	 0.0	 0.0	 0.0	 0.0	 0.0; % COW
	39	 120.0	 105.613	 190.0	 -167.0	 1.10999	 426.0	 1	 334	 120.0	 0.0	 0.0	 0.0	 0.0	 0.0	 0.0	 0.0	 0.0	 0.0	 0.0	 0.0; % NG
	40	 120.0	 40.236	 190.0	 -136.0	 1.04751	 426.0	 1	 271	 120.0	 0.0	 0.0	 0.0	 0.0	 0.0	 0.0	 0.0	 0.0	 0.0	 0.0	 0.0; % NG
	40	 435.0	 23.554	 218.0	 -218.0	 1.04751	 426.0	 1	 435	 120.0	 0.0	 0.0	 0.0	 0.0	 0.0	 0.0	 0.0	 0.0	 0.0	 0.0	 0.0; % COW
	40	 390.0	 18.89	 195.0	 -195.0	 1.04751	 426.0	 1	 390	 120.0	 0.0	 0.0	 0.0	 0.0	 0.0	 0.0	 0.0	 0.0	 0.0	 0.0	 0.0; % COW
	41	 120.0	 13.111	 190.0	 -153.0	 1.04753	 426.0	 1	 305	 120.0	 0.0	 0.0	 0.0	 0.0	 0.0	 0.0	 0.0	 0.0	 0.0	 0.0	 0.0; % NG
	41	 575.0	 -15.17	 288.0	 -288.0	 1.04753	 426.0	 1	 575	 120.0	 0.0	 0.0	 0.0	 0.0	 0.0	 0.0	 0.0	 0.0	 0.0	 0.0	 0.0; % NG
	41	 120.0	 22.131	 190.0	 -136.0	 1.04753	 426.0	 1	 271	 120.0	 0.0	 0.0	 0.0	 0.0	 0.0	 0.0	 0.0	 0.0	 0.0	 0.0	 0.0; % COW
	57	 55.0	 43.495	 152.0	 -87.0	 1.10999	 235.0	 1	 174	 55.0	 0.0	 0.0	 0.0	 0.0	 0.0	 0.0	 0.0	 0.0	 0.0	 0.0	 0.0; % NG
	57	 502.0	 47.194	 251.0	 -251.0	 1.10999	 235.0	 1	 502	 62.5	 0.0	 0.0	 0.0	 0.0	 0.0	 0.0	 0.0	 0.0	 0.0	 0.0	 0.0; % NG
	58	 261.0	 93.499	 149.0	 -131.0	 1.10995	 235.0	 1	 261	 62.5	 0.0	 0.0	 0.0	 0.0	 0.0	 0.0	 0.0	 0.0	 0.0	 0.0	 0.0; % NG
	58	 0.0	 0.0	 149.0	 -62.0	 1.10995	 235.0	 0	 123	 60.0	 0.0	 0.0	 0.0	 0.0	 0.0	 0.0	 0.0	 0.0	 0.0	 0.0	 0.0; % NG
	58	 55.0	 97.011	 154.0	 -154.0	 1.10995	 235.0	 1	 307	 55.0	 0.0	 0.0	 0.0	 0.0	 0.0	 0.0	 0.0	 0.0	 0.0	 0.0	 0.0; % NG
	59	 318.0	 126.582	 159.0	 -159.0	 1.11	 235.0	 1	 318	 55.0	 0.0	 0.0	 0.0	 0.0	 0.0	 0.0	 0.0	 0.0	 0.0	 0.0	 0.0; % NG
	60	 392.0	 67.843	 363.0	 -196.0	 1.04307	 588.0	 1	 392	 127.5	 0.0	 0.0	 0.0	 0.0	 0.0	 0.0	 0.0	 0.0	 0.0	 0.0	 0.0; % COW
	61	 687.0	 -6.477	 348.0	 -344.0	 1.04312	 588.0	 1	 687	 125.0	 0.0	 0.0	 0.0	 0.0	 0.0	 0.0	 0.0	 0.0	 0.0	 0.0	 0.0; % COW
	70	 237.0	 5.163	 119.0	 -119.0	 1.11	 235.0	 1	 237	 64.5	 0.0	 0.0	 0.0	 0.0	 0.0	 0.0	 0.0	 0.0	 0.0	 0.0	 0.0; % COW
	71	 64.5	 54.844	 152.0	 -152.0	 1.10997	 235.0	 1	 304	 64.5	 0.0	 0.0	 0.0	 0.0	 0.0	 0.0	 0.0	 0.0	 0.0	 0.0	 0.0; % NG
	71	 0.0	 0.0	 99.0	 -69.0	 1.10997	 235.0	 0	 138	 64.5	 0.0	 0.0	 0.0	 0.0	 0.0	 0.0	 0.0	 0.0	 0.0	 0.0	 0.0; % NG
	72	 0.0	 0.0	 105.0	 -28.0	 1.04093	 235.0	 0	 56	 129.0	 0.0	 0.0	 0.0	 0.0	 0.0	 0.0	 0.0	 0.0	 0.0	 0.0	 0.0; % NG
	72	 268.0	 9.074	 134.0	 -134.0	 1.04093	 235.0	 1	 268	 64.5	 0.0	 0.0	 0.0	 0.0	 0.0	 0.0	 0.0	 0.0	 0.0	 0.0	 0.0; % NG
	73	 64.5	 -60.994	 219.0	 -219.0	 1.04092	 235.0	 1	 438	 64.5	 0.0	 0.0	 0.0	 0.0	 0.0	 0.0	 0.0	 0.0	 0.0	 0.0	 0.0; % NG
	73	 320.0	 -33.726	 160.0	 -160.0	 1.04092	 235.0	 1	 320	 64.5	 0.0	 0.0	 0.0	 0.0	 0.0	 0.0	 0.0	 0.0	 0.0	 0.0	 0.0; % NG
	74	 0.0	 72.704	 138.0	 -138.0	 1.10418	 120.0	 1	 276	 0.0	 0.0	 0.0	 0.0	 0.0	 0.0	 0.0	 0.0	 0.0	 0.0	 0.0	 0.0; % COW
	94	 361.0	 57.663	 181.0	 -181.0	 1.10481	 270.6	 1	 361	 62.5	 0.0	 0.0	 0.0	 0.0	 0.0	 0.0	 0.0	 0.0	 0.0	 0.0	 0.0; % NG
	94	 673.0	 167.508	 337.0	 -337.0	 1.10481	 270.6	 1	 673	 70.0	 0.0	 0.0	 0.0	 0.0	 0.0	 0.0	 0.0	 0.0	 0.0	 0.0	 0.0; % COW
	95	 465.0	 93.01	 233.0	 -233.0	 1.0988	 270.6	 1	 465	 65.0	 0.0	 0.0	 0.0	 0.0	 0.0	 0.0	 0.0	 0.0	 0.0	 0.0	 0.0; % NG
	95	 210.0	 39.902	 131.0	 -105.0	 1.0988	 270.6	 1	 210	 62.5	 0.0	 0.0	 0.0	 0.0	 0.0	 0.0	 0.0	 0.0	 0.0	 0.0	 0.0; % NG
	95	 206.0	 40.47	 131.0	 -103.0	 1.0988	 270.6	 1	 206	 65.0	 0.0	 0.0	 0.0	 0.0	 0.0	 0.0	 0.0	 0.0	 0.0	 0.0	 0.0; % NG
	98	 522.512	 82.66	 568.0	 -568.0	 1.05	 426.0	 1	 1135	 110.0	 0.0	 0.0	 0.0	 0.0	 0.0	 0.0	 0.0	 0.0	 0.0	 0.0	 0.0; % COW
	98	 333.0	 7.286	 167.0	 -167.0	 1.05	 435.3	 1	 333	 110.0	 0.0	 0.0	 0.0	 0.0	 0.0	 0.0	 0.0	 0.0	 0.0	 0.0	 0.0; % NG
	115	 0.0	 19.2	 39.0	 -39.0	 1.09908	 12.0	 1	 78	 0.0	 0.0	 0.0	 0.0	 0.0	 0.0	 0.0	 0.0	 0.0	 0.0	 0.0	 0.0; % PEL
	115	 0.0	 47.994	 72.0	 -72.0	 1.09908	 6.0	 1	 144	 0.0	 0.0	 0.0	 0.0	 0.0	 0.0	 0.0	 0.0	 0.0	 0.0	 0.0	 0.0; % COW
	121	 0.0	 0.0	 120.0	 -56.0	 1.07884	 270.6	 0	 111	 60.0	 0.0	 0.0	 0.0	 0.0	 0.0	 0.0	 0.0	 0.0	 0.0	 0.0	 0.0; % NG
	122	 60.0	 -117.998	 120.0	 -118.0	 1.07869	 270.6	 1	 235	 60.0	 0.0	 0.0	 0.0	 0.0	 0.0	 0.0	 0.0	 0.0	 0.0	 0.0	 0.0; % NG
	123	 180.0	 90.0	 90.0	 -90.0	 1.0973	 150.0	 1	 180	 35.0	 0.0	 0.0	 0.0	 0.0	 0.0	 0.0	 0.0	 0.0	 0.0	 0.0	 0.0; % NG
	124	 150.0	 75.0	 75.0	 -75.0	 1.09725	 150.0	 1	 150	 35.0	 0.0	 0.0	 0.0	 0.0	 0.0	 0.0	 0.0	 0.0	 0.0	 0.0	 0.0; % COW
	134	 0.0	 0.0	 80.0	 -1.0	 1.09762	 150.0	 0	 2	 70.0	 0.0	 0.0	 0.0	 0.0	 0.0	 0.0	 0.0	 0.0	 0.0	 0.0	 0.0; % NG
	135	 35.0	 79.999	 80.0	 -63.6	 1.09763	 150.0	 1	 102	 35.0	 0.0	 0.0	 0.0	 0.0	 0.0	 0.0	 0.0	 0.0	 0.0	 0.0	 0.0; % NG
	136	 40.0	 121.0	 121.0	 -121.0	 1.08456	 117.5	 1	 241	 40.0	 0.0	 0.0	 0.0	 0.0	 0.0	 0.0	 0.0	 0.0	 0.0	 0.0	 0.0; % NG
	144	 67.5	 -144.929	 275.0	 -275.0	 1.08509	 270.6	 1	 550	 67.5	 0.0	 0.0	 0.0	 0.0	 0.0	 0.0	 0.0	 0.0	 0.0	 0.0	 0.0; % NG
	145	 222.0	 30.163	 135.0	 -111.0	 1.08526	 270.6	 1	 222	 67.5	 0.0	 0.0	 0.0	 0.0	 0.0	 0.0	 0.0	 0.0	 0.0	 0.0	 0.0; % NG
	145	 67.5	 28.847	 156.0	 -156.0	 1.08526	 270.6	 1	 311	 67.5	 0.0	 0.0	 0.0	 0.0	 0.0	 0.0	 0.0	 0.0	 0.0	 0.0	 0.0; % NG
	146	 290.0	 66.099	 145.0	 -145.0	 1.04511	 270.6	 1	 290	 67.5	 0.0	 0.0	 0.0	 0.0	 0.0	 0.0	 0.0	 0.0	 0.0	 0.0	 0.0; % NG
	146	 67.5	 63.844	 142.0	 -142.0	 1.04511	 270.6	 1	 284	 67.5	 0.0	 0.0	 0.0	 0.0	 0.0	 0.0	 0.0	 0.0	 0.0	 0.0	 0.0; % NG
	152	 0.0	 0.0	 72.0	 -29.0	 1.06417	 150.0	 0	 10	 -135.0	 0.0	 0.0	 0.0	 0.0	 0.0	 0.0	 0.0	 0.0	 0.0	 0.0	 0.0; % NG
	152	 0.0	 0.0	 223.0	 -223.0	 1.06417	 150.0	 0	 445	 -135.0	 0.0	 0.0	 0.0	 0.0	 0.0	 0.0	 0.0	 0.0	 0.0	 0.0	 0.0; % COW
	153	 0.0	 0.0	 162.0	 -162.0	 1.06396	 150.0	 0	 324	 -135.0	 0.0	 0.0	 0.0	 0.0	 0.0	 0.0	 0.0	 0.0	 0.0	 0.0	 0.0; % NG
	153	 0.0	 0.0	 72.0	 -64.0	 1.06396	 150.0	 0	 127	 -135.0	 0.0	 0.0	 0.0	 0.0	 0.0	 0.0	 0.0	 0.0	 0.0	 0.0	 0.0; % COW
	154	 167.0	 84.857	 85.0	 -84.0	 1.09664	 150.0	 1	 167	 47.0	 0.0	 0.0	 0.0	 0.0	 0.0	 0.0	 0.0	 0.0	 0.0	 0.0	 0.0; % NG
	155	 143.0	 59.89	 85.0	 -72.0	 1.0966	 150.0	 1	 143	 47.0	 0.0	 0.0	 0.0	 0.0	 0.0	 0.0	 0.0	 0.0	 0.0	 0.0	 0.0; % COW
	155	 0.0	 0.0	 85.0	 -66.0	 1.0966	 150.0	 0	 131	 47.0	 0.0	 0.0	 0.0	 0.0	 0.0	 0.0	 0.0	 0.0	 0.0	 0.0	 0.0; % COW
	169	 0.0	 0.0	 27.0	 -27.0	 1.08535	 51.4	 0	 54	 20.0	 0.0	 0.0	 0.0	 0.0	 0.0	 0.0	 0.0	 0.0	 0.0	 0.0	 0.0; % NG
	170	 0.0	 0.0	 90.0	 -21.0	 1.08541	 150.0	 0	 41	 40.0	 0.0	 0.0	 0.0	 0.0	 0.0	 0.0	 0.0	 0.0	 0.0	 0.0	 0.0; % NG
	170	 0.0	 0.0	 46.0	 -46.0	 1.08541	 51.4	 0	 92	 22.5	 0.0	 0.0	 0.0	 0.0	 0.0	 0.0	 0.0	 0.0	 0.0	 0.0	 0.0; % NG
	172	 146.0	 108.283	 119.0	 -73.0	 1.10592	 252.4	 1	 146	 50.0	 0.0	 0.0	 0.0	 0.0	 0.0	 0.0	 0.0	 0.0	 0.0	 0.0	 0.0; % NG
	172	 0.0	 0.0	 111.0	 -21.0	 1.10592	 237.5	 0	 4	 135.0	 0.0	 0.0	 0.0	 0.0	 0.0	 0.0	 0.0	 0.0	 0.0	 0.0	 0.0; % NG
	173	 0.0	 0.0	 111.0	 -85.0	 1.10575	 237.5	 0	 170	 67.5	 0.0	 0.0	 0.0	 0.0	 0.0	 0.0	 0.0	 0.0	 0.0	 0.0	 0.0; % NG
	173	 0.0	 0.0	 102.0	 -69.0	 1.10575	 252.4	 0	 137	 45.0	 0.0	 0.0	 0.0	 0.0	 0.0	 0.0	 0.0	 0.0	 0.0	 0.0	 0.0; % COW
	174	 178.0	 -147.996	 153.6	 -153.6	 1.01575	 252.4	 1	 178	 45.0	 0.0	 0.0	 0.0	 0.0	 0.0	 0.0	 0.0	 0.0	 0.0	 0.0	 0.0; % NG
	175	 172.0	 23.503	 102.0	 -86.0	 1.01578	 252.4	 1	 172	 45.0	 0.0	 0.0	 0.0	 0.0	 0.0	 0.0	 0.0	 0.0	 0.0	 0.0	 0.0; % NG
	175	 197.0	 17.147	 99.0	 -99.0	 1.01578	 252.4	 1	 197	 50.0	 0.0	 0.0	 0.0	 0.0	 0.0	 0.0	 0.0	 0.0	 0.0	 0.0	 0.0; % COW
	180	 75.287	 64.774	 127.0	 -84.0	 1.10999	 287.3	 1	 150	 52.0	 0.0	 0.0	 0.0	 0.0	 0.0	 0.0	 0.0	 0.0	 0.0	 0.0	 0.0; % NG
	180	 173.0	 64.331	 127.0	 -87.0	 1.10999	 287.3	 1	 173	 52.0	 0.0	 0.0	 0.0	 0.0	 0.0	 0.0	 0.0	 0.0	 0.0	 0.0	 0.0; % NG
	181	 184.0	 32.86	 103.0	 -92.0	 1.11	 238.4	 1	 184	 60.0	 0.0	 0.0	 0.0	 0.0	 0.0	 0.0	 0.0	 0.0	 0.0	 0.0	 0.0; % NG
	181	 264.0	 47.412	 132.0	 -132.0	 1.11	 287.3	 1	 264	 52.0	 0.0	 0.0	 0.0	 0.0	 0.0	 0.0	 0.0	 0.0	 0.0	 0.0	 0.0; % COW
	182	 47.0	 -6.701	 229.0	 -229.0	 1.11	 263.9	 1	 458	 47.0	 0.0	 0.0	 0.0	 0.0	 0.0	 0.0	 0.0	 0.0	 0.0	 0.0	 0.0; % NG
	182	 47.0	 14.389	 145.0	 -112.0	 1.11	 263.9	 1	 223	 47.0	 0.0	 0.0	 0.0	 0.0	 0.0	 0.0	 0.0	 0.0	 0.0	 0.0	 0.0; % NG
	183	 60.0	 33.737	 138.0	 -138.0	 1.05	 238.4	 1	 275	 60.0	 0.0	 0.0	 0.0	 0.0	 0.0	 0.0	 0.0	 0.0	 0.0	 0.0	 0.0; % NG
	183	 650.0	 154.206	 325.0	 -325.0	 1.05	 238.4	 1	 650	 60.0	 0.0	 0.0	 0.0	 0.0	 0.0	 0.0	 0.0	 0.0	 0.0	 0.0	 0.0; % COW
	191	 75.0	 124.998	 125.0	 -125.0	 1.08714	 233.2	 1	 250	 75.0	 0.0	 0.0	 0.0	 0.0	 0.0	 0.0	 0.0	 0.0	 0.0	 0.0	 0.0; % NG
	192	 467.0	 233.998	 234.0	 -234.0	 1.08722	 233.2	 1	 467	 75.0	 0.0	 0.0	 0.0	 0.0	 0.0	 0.0	 0.0	 0.0	 0.0	 0.0	 0.0; % NG
	192	 0.0	 0.0	 104.0	 -23.0	 1.08722	 233.2	 0	 16	 145.0	 0.0	 0.0	 0.0	 0.0	 0.0	 0.0	 0.0	 0.0	 0.0	 0.0	 0.0; % NG
	192	 0.0	 0.0	 104.0	 -63.0	 1.08722	 233.2	 0	 125	 72.5	 0.0	 0.0	 0.0	 0.0	 0.0	 0.0	 0.0	 0.0	 0.0	 0.0	 0.0; % NG
	193	 400.0	 167.433	 294.0	 -259.0	 1.00489	 464.0	 1	 400	 104.0	 0.0	 0.0	 0.0	 0.0	 0.0	 0.0	 0.0	 0.0	 0.0	 0.0	 0.0; % COW
	208	 167.0	 65.662	 100.0	 -84.0	 1.09525	 218.3	 1	 167	 38.0	 0.0	 0.0	 0.0	 0.0	 0.0	 0.0	 0.0	 0.0	 0.0	 0.0	 0.0; % NG
	240	 -200.0	 -51.078	 105.0	 -62.0	 1.0265	 209.0	 1	 49	 -200.0	 0.0	 0.0	 0.0	 0.0	 0.0	 0.0	 0.0	 0.0	 0.0	 0.0	 0.0; % NG
	240	 75.0	 -51.078	 105.0	 -62.0	 1.0265	 209.0	 1	 75	 -200.0	 0.0	 0.0	 0.0	 0.0	 0.0	 0.0	 0.0	 0.0	 0.0	 0.0	 0.0; % NG
	240	 0.0	 0.0	 160.0	 -100.0	 1.0265	 209.0	 0	 64	 -200.0	 0.0	 0.0	 0.0	 0.0	 0.0	 0.0	 0.0	 0.0	 0.0	 0.0	 0.0; % COW
	241	 18.0	 -13.941	 160.0	 -100.0	 1.0265	 209.0	 1	 18	 -200.0	 0.0	 0.0	 0.0	 0.0	 0.0	 0.0	 0.0	 0.0	 0.0	 0.0	 0.0; % NG
	244	 259.858	 8.022	 176.0	 -176.0	 1.11	 177.1	 1	 352	 56.25	 0.0	 0.0	 0.0	 0.0	 0.0	 0.0	 0.0	 0.0	 0.0	 0.0	 0.0; % NG
	254	 11.5	 20.84	 41.0	 -41.0	 1.11223	 78.8	 1	 81	 11.5	 0.0	 0.0	 0.0	 0.0	 0.0	 0.0	 0.0	 0.0	 0.0	 0.0	 0.0; % NG
	254	 70.0	 16.129	 35.0	 -35.0	 1.11223	 68.8	 1	 70	 12.5	 0.0	 0.0	 0.0	 0.0	 0.0	 0.0	 0.0	 0.0	 0.0	 0.0	 0.0; % NG
	254	 12.5	 63.981	 89.0	 -89.0	 1.11223	 68.8	 1	 178	 12.5	 0.0	 0.0	 0.0	 0.0	 0.0	 0.0	 0.0	 0.0	 0.0	 0.0	 0.0; % NG
	254	 3.5	 15.074	 33.6	 -33.6	 1.11223	 27.6	 1	 23	 3.5	 0.0	 0.0	 0.0	 0.0	 0.0	 0.0	 0.0	 0.0	 0.0	 0.0	 0.0; % PEL
	267	 0.225	 -0.629	 32.0	 -32.0	 1.1139	 0.7	 1	 64	 0.225	 0.0	 0.0	 0.0	 0.0	 0.0	 0.0	 0.0	 0.0	 0.0	 0.0	 0.0; % NG
	268	 97.278	 -9.297	 65.0	 -65.0	 1.12	 0.7	 1	 129	 0.225	 0.0	 0.0	 0.0	 0.0	 0.0	 0.0	 0.0	 0.0	 0.0	 0.0	 0.0; % NG
	278	 0.0	 0.0	 5.0	 -2.0	 1.11947	 10.3	 0	 4	 2.925	 0.0	 0.0	 0.0	 0.0	 0.0	 0.0	 0.0	 0.0	 0.0	 0.0	 0.0; % PEL
	279	 0.0	 0.0	 8.0	 -8.0	 1.11989	 10.3	 0	 15	 2.925	 0.0	 0.0	 0.0	 0.0	 0.0	 0.0	 0.0	 0.0	 0.0	 0.0	 0.0; % PEL
	295	 100.0	 5.248	 50.0	 -50.0	 1.12	 5.0	 1	 100	 0.5	 0.0	 0.0	 0.0	 0.0	 0.0	 0.0	 0.0	 0.0	 0.0	 0.0	 0.0; % NG
	295	 89.0	 4.259	 45.0	 -45.0	 1.12	 5.0	 1	 89	 0.5	 0.0	 0.0	 0.0	 0.0	 0.0	 0.0	 0.0	 0.0	 0.0	 0.0	 0.0; % NG
	295	 0.5	 7.035	 58.0	 -58.0	 1.12	 5.0	 1	 116	 0.5	 0.0	 0.0	 0.0	 0.0	 0.0	 0.0	 0.0	 0.0	 0.0	 0.0	 0.0; % NG
	295	 0.5	 3.715	 42.0	 -42.0	 1.12	 5.0	 1	 83	 0.5	 0.0	 0.0	 0.0	 0.0	 0.0	 0.0	 0.0	 0.0	 0.0	 0.0	 0.0; % NG
	310	 284.0	 192.53	 304.8	 -304.8	 1.00129	 426.0	 1	 284	 120.0	 0.0	 0.0	 0.0	 0.0	 0.0	 0.0	 0.0	 0.0	 0.0	 0.0	 0.0; % NG
	316	 0.0	 0.0	 90.0	 -90.0	 1.05545	 4.0	 0	 179	 0.5	 0.0	 0.0	 0.0	 0.0	 0.0	 0.0	 0.0	 0.0	 0.0	 0.0	 0.0; % NG
	316	 0.0	 0.0	 92.0	 -92.0	 1.05545	 4.0	 0	 183	 0.5	 0.0	 0.0	 0.0	 0.0	 0.0	 0.0	 0.0	 0.0	 0.0	 0.0	 0.0; % NG
	376	 110.0	 -4.761	 55.0	 -55.0	 1.12	 8.4	 1	 110	 2.7	 0.0	 0.0	 0.0	 0.0	 0.0	 0.0	 0.0	 0.0	 0.0	 0.0	 0.0; % COW
	379	 0.15	 -3.284	 34.0	 -34.0	 1.12	 0.9	 1	 68	 0.15	 0.0	 0.0	 0.0	 0.0	 0.0	 0.0	 0.0	 0.0	 0.0	 0.0	 0.0; % PEL
	379	 0.15	 -0.412	 12.0	 -12.0	 1.12	 0.9	 1	 23	 0.15	 0.0	 0.0	 0.0	 0.0	 0.0	 0.0	 0.0	 0.0	 0.0	 0.0	 0.0; % PEL
	379	 93.0	 -6.224	 47.0	 -47.0	 1.12	 0.9	 1	 93	 0.15	 0.0	 0.0	 0.0	 0.0	 0.0	 0.0	 0.0	 0.0	 0.0	 0.0	 0.0; % NG
	383	 5.5	 4.541	 25.0	 -25.0	 1.11931	 31.3	 1	 49	 5.5	 0.0	 0.0	 0.0	 0.0	 0.0	 0.0	 0.0	 0.0	 0.0	 0.0	 0.0; % NG
	383	 5.5	 15.505	 48.0	 -48.0	 1.11931	 39.0	 1	 95	 5.5	 0.0	 0.0	 0.0	 0.0	 0.0	 0.0	 0.0	 0.0	 0.0	 0.0	 0.0; % PEL
	383	 118.0	 22.389	 59.0	 -59.0	 1.11931	 40.6	 1	 118	 4.5	 0.0	 0.0	 0.0	 0.0	 0.0	 0.0	 0.0	 0.0	 0.0	 0.0	 0.0; % NG
	384	 38.679	 21.528	 142.0	 -142.0	 1.11883	 68.8	 1	 283	 10.0	 0.0	 0.0	 0.0	 0.0	 0.0	 0.0	 0.0	 0.0	 0.0	 0.0	 0.0; % NG
	384	 10.0	 3.414	 56.0	 -56.0	 1.11883	 68.8	 1	 112	 10.0	 0.0	 0.0	 0.0	 0.0	 0.0	 0.0	 0.0	 0.0	 0.0	 0.0	 0.0; % PEL
	385	 88.0	 0.627	 44.0	 -44.0	 1.11524	 48.5	 1	 88	 5.0	 0.0	 0.0	 0.0	 0.0	 0.0	 0.0	 0.0	 0.0	 0.0	 0.0	 0.0; % COW
	385	 10.0	 2.922	 95.0	 -95.0	 1.11524	 68.8	 1	 190	 10.0	 0.0	 0.0	 0.0	 0.0	 0.0	 0.0	 0.0	 0.0	 0.0	 0.0	 0.0; % NG
	387	 12.5	 29.454	 92.0	 -92.0	 1.115	 68.8	 1	 183	 12.5	 0.0	 0.0	 0.0	 0.0	 0.0	 0.0	 0.0	 0.0	 0.0	 0.0	 0.0; % NG
	387	 27.5	 28.875	 91.0	 -91.0	 1.115	 147.0	 1	 182	 27.5	 0.0	 0.0	 0.0	 0.0	 0.0	 0.0	 0.0	 0.0	 0.0	 0.0	 0.0; % NG
	388	 12.5	 43.943	 108.0	 -108.0	 1.11252	 68.8	 1	 216	 12.5	 0.0	 0.0	 0.0	 0.0	 0.0	 0.0	 0.0	 0.0	 0.0	 0.0	 0.0; % NG
	399	 1.0	 22.381	 34.0	 -34.0	 1.11357	 3.8	 1	 68	 1.0	 0.0	 0.0	 0.0	 0.0	 0.0	 0.0	 0.0	 0.0	 0.0	 0.0	 0.0; % PEL
	433	 0.675	 5.325	 39.0	 -39.0	 1.11141	 1.9	 1	 78	 0.675	 0.0	 0.0	 0.0	 0.0	 0.0	 0.0	 0.0	 0.0	 0.0	 0.0	 0.0; % PEL
	455	 136.0	 -2.73	 68.0	 -68.0	 1.11967	 68.8	 1	 136	 7.5	 0.0	 0.0	 0.0	 0.0	 0.0	 0.0	 0.0	 0.0	 0.0	 0.0	 0.0; % NG
	456	 7.5	 22.717	 57.0	 -50.0	 1.11666	 68.8	 1	 100	 7.5	 0.0	 0.0	 0.0	 0.0	 0.0	 0.0	 0.0	 0.0	 0.0	 0.0	 0.0; % PEL
	457	 100.0	 -0.535	 57.0	 -50.0	 1.11326	 68.8	 1	 100	 7.5	 0.0	 0.0	 0.0	 0.0	 0.0	 0.0	 0.0	 0.0	 0.0	 0.0	 0.0; % NG
	457	 60.0	 16.903	 71.0	 -30.0	 1.11326	 87.5	 1	 60	 1.5	 0.0	 0.0	 0.0	 0.0	 0.0	 0.0	 0.0	 0.0	 0.0	 0.0	 0.0; % NG
	458	 7.5	 10.15	 76.0	 -76.0	 1.11483	 68.8	 1	 151	 7.5	 0.0	 0.0	 0.0	 0.0	 0.0	 0.0	 0.0	 0.0	 0.0	 0.0	 0.0; % NG
	458	 117.0	 6.16	 59.0	 -59.0	 1.11483	 68.8	 1	 117	 7.5	 0.0	 0.0	 0.0	 0.0	 0.0	 0.0	 0.0	 0.0	 0.0	 0.0	 0.0; % NG
	478	 176.0	 42.886	 137.0	 -88.0	 1.11692	 235.3	 1	 176	 60.0	 0.0	 0.0	 0.0	 0.0	 0.0	 0.0	 0.0	 0.0	 0.0	 0.0	 0.0; % NG
	478	 6.0	 0.483	 18.0	 -18.0	 1.11692	 48.5	 1	 32	 6.0	 0.0	 0.0	 0.0	 0.0	 0.0	 0.0	 0.0	 0.0	 0.0	 0.0	 0.0; % PEL
	479	 5.0	 17.616	 257.0	 -257.0	 1.11027	 48.5	 1	 514	 5.0	 0.0	 0.0	 0.0	 0.0	 0.0	 0.0	 0.0	 0.0	 0.0	 0.0	 0.0; % NG
	482	 112.0	 1.897	 56.0	 -56.0	 1.12	 5.6	 1	 112	 1.8	 0.0	 0.0	 0.0	 0.0	 0.0	 0.0	 0.0	 0.0	 0.0	 0.0	 0.0; % NG
	500	 0.0	 22.785	 33.6	 -33.6	 1.10282	 0.4	 1	 43	 0.0	 0.0	 0.0	 0.0	 0.0	 0.0	 0.0	 0.0	 0.0	 0.0	 0.0	 0.0; % PEL
	522	 1.5	 33.735	 292.0	 -292.0	 1.11102	 8.4	 1	 584	 1.5	 0.0	 0.0	 0.0	 0.0	 0.0	 0.0	 0.0	 0.0	 0.0	 0.0	 0.0; % NG
	527	 1.395	 5.425	 40.0	 -40.0	 1.11777	 4.6	 1	 80	 1.395	 0.0	 0.0	 0.0	 0.0	 0.0	 0.0	 0.0	 0.0	 0.0	 0.0	 0.0; % PEL
	532	 0.5	 1.832	 21.0	 -21.0	 1.09366	 6.5	 1	 42	 0.5	 0.0	 0.0	 0.0	 0.0	 0.0	 0.0	 0.0	 0.0	 0.0	 0.0	 0.0; % PEL
	532	 0.5	 4.212	 32.0	 -32.0	 1.09366	 6.5	 1	 63	 0.5	 0.0	 0.0	 0.0	 0.0	 0.0	 0.0	 0.0	 0.0	 0.0	 0.0	 0.0; % NG
	532	 0.506	 4.212	 32.0	 -32.0	 1.09366	 6.5	 1	 64	 0.5	 0.0	 0.0	 0.0	 0.0	 0.0	 0.0	 0.0	 0.0	 0.0	 0.0	 0.0; % NG
	543	 1.215	 14.033	 39.0	 -39.0	 1.07596	 4.1	 1	 77	 1.215	 0.0	 0.0	 0.0	 0.0	 0.0	 0.0	 0.0	 0.0	 0.0	 0.0	 0.0; % PEL
	572	 0.0	 0.0	 19.0	 -19.0	 1.05071	 4.6	 0	 37	 1.44	 0.0	 0.0	 0.0	 0.0	 0.0	 0.0	 0.0	 0.0	 0.0	 0.0	 0.0; % NG
	597	 0.5	 2.389	 32.0	 -32.0	 1.09189	 1.9	 1	 64	 0.5	 0.0	 0.0	 0.0	 0.0	 0.0	 0.0	 0.0	 0.0	 0.0	 0.0	 0.0; % PEL
	597	 0.0	 0.0	 0.7	 0.0	 1.09189	 1.9	 0	 0	 1.0	 0.0	 0.0	 0.0	 0.0	 0.0	 0.0	 0.0	 0.0	 0.0	 0.0	 0.0; % PEL
	603	 1.5	 88.557	 93.0	 -93.0	 1.12	 5.6	 1	 186	 1.5	 0.0	 0.0	 0.0	 0.0	 0.0	 0.0	 0.0	 0.0	 0.0	 0.0	 0.0; % NG
	670	 110.789	 4.694	 111.0	 -111.0	 1.101	 62.5	 1	 222	 18.5	 0.0	 0.0	 0.0	 0.0	 0.0	 0.0	 0.0	 0.0	 0.0	 0.0	 0.0; % COW
	670	 5.0	 2.07	 23.0	 -19.2	 1.101	 37.5	 1	 35	 5.0	 0.0	 0.0	 0.0	 0.0	 0.0	 0.0	 0.0	 0.0	 0.0	 0.0	 0.0; % NG
	670	 102.0	 18.763	 85.0	 -51.0	 1.101	 150.0	 1	 102	 25.0	 0.0	 0.0	 0.0	 0.0	 0.0	 0.0	 0.0	 0.0	 0.0	 0.0	 0.0; % NG
	670	 25.0	 6.835	 134.0	 -134.0	 1.101	 150.0	 1	 267	 25.0	 0.0	 0.0	 0.0	 0.0	 0.0	 0.0	 0.0	 0.0	 0.0	 0.0	 0.0; % NG
	671	 5.0	 2.429	 29.0	 -29.0	 1.11794	 37.5	 1	 58	 5.0	 0.0	 0.0	 0.0	 0.0	 0.0	 0.0	 0.0	 0.0	 0.0	 0.0	 0.0; % PEL
	671	 5.0	 1.619	 23.0	 -22.8	 1.11794	 37.5	 1	 43	 5.0	 0.0	 0.0	 0.0	 0.0	 0.0	 0.0	 0.0	 0.0	 0.0	 0.0	 0.0; % PEL
	671	 16.92	 16.458	 77.0	 -77.0	 1.11794	 37.5	 1	 153	 5.0	 0.0	 0.0	 0.0	 0.0	 0.0	 0.0	 0.0	 0.0	 0.0	 0.0	 0.0; % NG
	671	 34.0	 21.842	 85.0	 -78.0	 1.11794	 150.0	 1	 155	 34.0	 0.0	 0.0	 0.0	 0.0	 0.0	 0.0	 0.0	 0.0	 0.0	 0.0	 0.0; % NG
	671	 268.0	 46.058	 134.0	 -134.0	 1.11794	 150.0	 1	 268	 25.0	 0.0	 0.0	 0.0	 0.0	 0.0	 0.0	 0.0	 0.0	 0.0	 0.0	 0.0; % NG
	692	 0.63	 3.648	 49.0	 -49.0	 1.09741	 1.9	 1	 97	 0.63	 0.0	 0.0	 0.0	 0.0	 0.0	 0.0	 0.0	 0.0	 0.0	 0.0	 0.0; % PEL
	694	 0.0	 12.594	 90.0	 -90.0	 1.09198	 3.8	 1	 180	 0.0	 0.0	 0.0	 0.0	 0.0	 0.0	 0.0	 0.0	 0.0	 0.0	 0.0	 0.0; % PEL
	700	 100.0	 -15.64	 50.0	 -50.0	 1.11941	 37.5	 1	 100	 4.5	 0.0	 0.0	 0.0	 0.0	 0.0	 0.0	 0.0	 0.0	 0.0	 0.0	 0.0; % COW
	700	 145.0	 -30.503	 73.0	 -73.0	 1.11941	 37.5	 1	 145	 4.5	 0.0	 0.0	 0.0	 0.0	 0.0	 0.0	 0.0	 0.0	 0.0	 0.0	 0.0; % NG
	701	 126.0	 41.656	 63.0	 -63.0	 1.1169	 37.5	 1	 126	 4.5	 0.0	 0.0	 0.0	 0.0	 0.0	 0.0	 0.0	 0.0	 0.0	 0.0	 0.0; % COW
	701	 4.5	 35.275	 56.0	 -56.0	 1.1169	 37.5	 1	 112	 4.5	 0.0	 0.0	 0.0	 0.0	 0.0	 0.0	 0.0	 0.0	 0.0	 0.0	 0.0; % PEL
	701	 4.5	 29.044	 49.0	 -49.0	 1.1169	 37.5	 1	 97	 4.5	 0.0	 0.0	 0.0	 0.0	 0.0	 0.0	 0.0	 0.0	 0.0	 0.0	 0.0; % NG
	701	 15.0	 61.363	 84.0	 -84.0	 1.1169	 121.3	 1	 167	 15.0	 0.0	 0.0	 0.0	 0.0	 0.0	 0.0	 0.0	 0.0	 0.0	 0.0	 0.0; % NG
	702	 55.0	 27.996	 28.0	 -28.0	 1.12	 37.5	 1	 55	 4.5	 0.0	 0.0	 0.0	 0.0	 0.0	 0.0	 0.0	 0.0	 0.0	 0.0	 0.0; % NG
	702	 4.5	 56.996	 57.0	 -57.0	 1.12	 37.5	 1	 113	 4.5	 0.0	 0.0	 0.0	 0.0	 0.0	 0.0	 0.0	 0.0	 0.0	 0.0	 0.0; % NG
	702	 4.5	 24.996	 25.0	 -25.0	 1.12	 31.5	 1	 50	 4.5	 0.0	 0.0	 0.0	 0.0	 0.0	 0.0	 0.0	 0.0	 0.0	 0.0	 0.0; % PEL
	735	 120.0	 8.673	 60.0	 -60.0	 1.11573	 5.3	 1	 120	 0.5	 0.0	 0.0	 0.0	 0.0	 0.0	 0.0	 0.0	 0.0	 0.0	 0.0	 0.0; % COW
	735	 0.5	 0.796	 18.0	 -18.0	 1.11573	 2.0	 1	 36	 0.5	 0.0	 0.0	 0.0	 0.0	 0.0	 0.0	 0.0	 0.0	 0.0	 0.0	 0.0; % PEL
	752	 1.8	 -4.742	 132.0	 -132.0	 1.08599	 5.8	 1	 263	 1.8	 0.0	 0.0	 0.0	 0.0	 0.0	 0.0	 0.0	 0.0	 0.0	 0.0	 0.0; % NG
	766	 0.0	 8.008	 92.0	 -92.0	 1.09426	 5.8	 1	 183	 0.0	 0.0	 0.0	 0.0	 0.0	 0.0	 0.0	 0.0	 0.0	 0.0	 0.0	 0.0; % PEL
	775	 125.0	 8.343	 63.0	 -63.0	 1.11425	 4.0	 1	 125	 0.0	 0.0	 0.0	 0.0	 0.0	 0.0	 0.0	 0.0	 0.0	 0.0	 0.0	 0.0; % NG
	798	 0.0	 19.18	 95.0	 -95.0	 1.09569	 65.0	 1	 190	 0.0	 0.0	 0.0	 0.0	 0.0	 0.0	 0.0	 0.0	 0.0	 0.0	 0.0	 0.0; % NG
	798	 63.287	 3.345	 39.0	 -39.0	 1.09569	 65.0	 1	 78	 0.0	 0.0	 0.0	 0.0	 0.0	 0.0	 0.0	 0.0	 0.0	 0.0	 0.0	 0.0; % NG
	801	 0.0	 0.0	 17.0	 -17.0	 1.08589	 12.4	 0	 34	 0.0	 0.0	 0.0	 0.0	 0.0	 0.0	 0.0	 0.0	 0.0	 0.0	 0.0	 0.0; % PEL
	808	 0.0	 1.927	 18.0	 -18.0	 1.10759	 4.7	 1	 35	 0.0	 0.0	 0.0	 0.0	 0.0	 0.0	 0.0	 0.0	 0.0	 0.0	 0.0	 0.0; % NG
	809	 0.0	 6.263	 38.0	 -38.0	 1.10796	 5.8	 1	 76	 0.0	 0.0	 0.0	 0.0	 0.0	 0.0	 0.0	 0.0	 0.0	 0.0	 0.0	 0.0; % PEL
	846	 276.0	 15.407	 149.0	 -138.0	 1.12	 235.0	 1	 276	 65.0	 0.0	 0.0	 0.0	 0.0	 0.0	 0.0	 0.0	 0.0	 0.0	 0.0	 0.0; % COW
	847	 55.0	 92.992	 204.0	 -204.0	 1.12	 235.0	 1	 407	 55.0	 0.0	 0.0	 0.0	 0.0	 0.0	 0.0	 0.0	 0.0	 0.0	 0.0	 0.0; % NG
	854	 0.0	 9.751	 85.0	 -85.0	 1.08804	 3.0	 1	 169	 0.0	 0.0	 0.0	 0.0	 0.0	 0.0	 0.0	 0.0	 0.0	 0.0	 0.0	 0.0; % PEL
	860	 131.0	 2.375	 66.0	 -66.0	 1.12	 12.4	 1	 131	 0.0	 0.0	 0.0	 0.0	 0.0	 0.0	 0.0	 0.0	 0.0	 0.0	 0.0	 0.0; % NG
	870	 33.0	 13.064	 140.0	 -140.0	 1.11218	 167.6	 1	 280	 33.0	 0.0	 0.0	 0.0	 0.0	 0.0	 0.0	 0.0	 0.0	 0.0	 0.0	 0.0; % NG
	870	 138.0	 3.194	 69.0	 -69.0	 1.11218	 71.6	 1	 138	 17.0	 0.0	 0.0	 0.0	 0.0	 0.0	 0.0	 0.0	 0.0	 0.0	 0.0	 0.0; % NG
	876	 0.0	 21.87	 43.0	 -43.0	 1.10883	 8.3	 1	 85	 0.0	 0.0	 0.0	 0.0	 0.0	 0.0	 0.0	 0.0	 0.0	 0.0	 0.0	 0.0; % PEL
	890	 179.202	 -0.257	 110.0	 -110.0	 1.12	 5.6	 1	 220	 0.0	 0.0	 0.0	 0.0	 0.0	 0.0	 0.0	 0.0	 0.0	 0.0	 0.0	 0.0; % COW
	893	 0.0	 0.0	 23.0	 -23.0	 1.10543	 3.0	 0	 45	 0.0	 0.0	 0.0	 0.0	 0.0	 0.0	 0.0	 0.0	 0.0	 0.0	 0.0	 0.0; % NG
	908	 110.0	 2.286	 55.0	 -55.0	 1.12	 3.0	 1	 110	 0.0	 0.0	 0.0	 0.0	 0.0	 0.0	 0.0	 0.0	 0.0	 0.0	 0.0	 0.0; % NG
	913	 0.0	 34.264	 65.0	 -65.0	 1.08586	 0.0	 1	 130	 0.0	 0.0	 0.0	 0.0	 0.0	 0.0	 0.0	 0.0	 0.0	 0.0	 0.0	 0.0; % PEL
	918	 0.0	 0.0	 6.0	 -6.0	 1.10314	 1.0	 0	 11	 0.0	 0.0	 0.0	 0.0	 0.0	 0.0	 0.0	 0.0	 0.0	 0.0	 0.0	 0.0; % PEL
	929	 0.0	 0.0	 45.0	 -45.0	 1.08589	 2.1	 0	 90	 0.67	 0.0	 0.0	 0.0	 0.0	 0.0	 0.0	 0.0	 0.0	 0.0	 0.0	 0.0; % PEL
	934	 165.0	 18.411	 105.0	 -83.0	 1.11996	 235.0	 1	 165	 64.5	 0.0	 0.0	 0.0	 0.0	 0.0	 0.0	 0.0	 0.0	 0.0	 0.0	 0.0; % NG
	936	 0.0	 13.688	 38.0	 -38.0	 1.08443	 36.8	 1	 75	 0.0	 0.0	 0.0	 0.0	 0.0	 0.0	 0.0	 0.0	 0.0	 0.0	 0.0	 0.0; % PEL
	939	 0.0	 0.0	 2.0	 -2.0	 1.09922	 2.8	 0	 3	 0.89	 0.0	 0.0	 0.0	 0.0	 0.0	 0.0	 0.0	 0.0	 0.0	 0.0	 0.0; % PEL
	959	 133.0	 22.004	 67.0	 -67.0	 1.10641	 100.8	 1	 133	 24.5	 0.0	 0.0	 0.0	 0.0	 0.0	 0.0	 0.0	 0.0	 0.0	 0.0	 0.0; % NG
	965	 0.0	 0.0	 41.0	 -41.0	 1.07906	 1.7	 0	 82	 0.0	 0.0	 0.0	 0.0	 0.0	 0.0	 0.0	 0.0	 0.0	 0.0	 0.0	 0.0; % NG
	980	 0.0	 19.123	 45.0	 -45.0	 1.09913	 9.5	 1	 89	 0.0	 0.0	 0.0	 0.0	 0.0	 0.0	 0.0	 0.0	 0.0	 0.0	 0.0	 0.0; % PEL
	982	 0.0	 0.0	 7.0	 -7.0	 1.09565	 1.6	 0	 13	 0.455	 0.0	 0.0	 0.0	 0.0	 0.0	 0.0	 0.0	 0.0	 0.0	 0.0	 0.0; % PEL
	984	 0.5	 5.775	 67.0	 -67.0	 1.10733	 5.9	 1	 133	 0.5	 0.0	 0.0	 0.0	 0.0	 0.0	 0.0	 0.0	 0.0	 0.0	 0.0	 0.0; % PEL
	989	 139.0	 11.654	 70.0	 -70.0	 1.12	 10.9	 1	 139	 0.0	 0.0	 0.0	 0.0	 0.0	 0.0	 0.0	 0.0	 0.0	 0.0	 0.0	 0.0; % NG
	993	 94.951	 -4.589	 49.0	 -49.0	 1.11998	 52.0	 1	 98	 2.5	 0.0	 0.0	 0.0	 0.0	 0.0	 0.0	 0.0	 0.0	 0.0	 0.0	 0.0; % NG
	993	 0.0	 0.0	 23.0	 -10.0	 1.11998	 52.0	 0	 20	 2.5	 0.0	 0.0	 0.0	 0.0	 0.0	 0.0	 0.0	 0.0	 0.0	 0.0	 0.0; % PEL
	993	 0.0	 0.0	 69.0	 -69.0	 1.11998	 24.5	 0	 138	 -32.0	 0.0	 0.0	 0.0	 0.0	 0.0	 0.0	 0.0	 0.0	 0.0	 0.0	 0.0; % NG
	993	 0.0	 0.0	 10.0	 -7.0	 1.11998	 24.5	 0	 14	 -32.0	 0.0	 0.0	 0.0	 0.0	 0.0	 0.0	 0.0	 0.0	 0.0	 0.0	 0.0; % PEL
	1008	 0.0	 0.0	 10.0	 -6.0	 1.12	 69.0	 0	 11	 0.0	 0.0	 0.0	 0.0	 0.0	 0.0	 0.0	 0.0	 0.0	 0.0	 0.0	 0.0; % NG
	1008	 306.0	 8.132	 153.0	 -153.0	 1.12	 57.6	 1	 306	 46.0	 0.0	 0.0	 0.0	 0.0	 0.0	 0.0	 0.0	 0.0	 0.0	 0.0	 0.0; % COW
	1009	 42.0	 53.844	 81.0	 -81.0	 1.09321	 57.6	 1	 161	 42.0	 0.0	 0.0	 0.0	 0.0	 0.0	 0.0	 0.0	 0.0	 0.0	 0.0	 0.0; % NG
	1009	 0.0	 0.0	 29.0	 -29.0	 1.09321	 40.0	 0	 58	 0.0	 0.0	 0.0	 0.0	 0.0	 0.0	 0.0	 0.0	 0.0	 0.0	 0.0	 0.0; % PEL
	1021	 0.0	 5.516	 40.0	 -40.0	 1.11172	 3.3	 1	 80	 0.0	 0.0	 0.0	 0.0	 0.0	 0.0	 0.0	 0.0	 0.0	 0.0	 0.0	 0.0; % PEL
	1049	 1.115	 7.648	 65.0	 -65.0	 1.08133	 3.8	 1	 129	 1.115	 0.0	 0.0	 0.0	 0.0	 0.0	 0.0	 0.0	 0.0	 0.0	 0.0	 0.0; % PEL
...
];

%% generator cost data
%	2	startup	shutdown	n	c(n-1)	...	c0
mpc.gencost = [
	2	 0.0	 0.0	 3	   0.000000	   1.301874	   0.000000; % NG
	2	 0.0	 0.0	 3	   0.000000	   0.921024	   0.000000; % NG
	2	 0.0	 0.0	 3	   0.000000	   1.439266	   0.000000; % NG
	2	 0.0	 0.0	 3	   0.000000	   1.068066	   0.000000; % NG
	2	 0.0	 0.0	 3	   0.000000	   0.913909	   0.000000; % NG
	2	 0.0	 0.0	 3	   0.000000	   0.432743	   0.000000; % COW
	2	 0.0	 0.0	 3	   0.000000	   1.031477	   0.000000; % NG
	2	 0.0	 0.0	 3	   0.000000	   1.057067	   0.000000; % NG
	2	 0.0	 0.0	 3	   0.000000	   0.615442	   0.000000; % COW
	2	 0.0	 0.0	 3	   0.000000	   0.423104	   0.000000; % COW
	2	 0.0	 0.0	 3	   0.000000	   1.285025	   0.000000; % NG
	2	 0.0	 0.0	 3	   0.000000	   0.732140	   0.000000; % NG
	2	 0.0	 0.0	 3	   0.000000	   1.022856	   0.000000; % COW
	2	 0.0	 0.0	 3	   0.000000	   1.215718	   0.000000; % NG
	2	 0.0	 0.0	 3	   0.000000	   0.999977	   0.000000; % NG
	2	 0.0	 0.0	 3	   0.000000	   0.815674	   0.000000; % NG
	2	 0.0	 0.0	 3	   0.000000	   0.722666	   0.000000; % NG
	2	 0.0	 0.0	 3	   0.000000	   1.160339	   0.000000; % NG
	2	 0.0	 0.0	 3	   0.000000	   0.983529	   0.000000; % NG
	2	 0.0	 0.0	 3	   0.000000	   0.783423	   0.000000; % COW
	2	 0.0	 0.0	 3	   0.000000	   0.497637	   0.000000; % COW
	2	 0.0	 0.0	 3	   0.000000	   0.875784	   0.000000; % COW
	2	 0.0	 0.0	 3	   0.000000	   1.105565	   0.000000; % NG
	2	 0.0	 0.0	 3	   0.000000	   0.710069	   0.000000; % NG
	2	 0.0	 0.0	 3	   0.000000	   0.905224	   0.000000; % NG
	2	 0.0	 0.0	 3	   0.000000	   0.930705	   0.000000; % NG
	2	 0.0	 0.0	 3	   0.000000	   1.634526	   0.000000; % NG
	2	 0.0	 0.0	 3	   0.000000	   0.848697	   0.000000; % NG
	2	 0.0	 0.0	 3	   0.000000	   1.413853	   0.000000; % COW
	2	 0.0	 0.0	 3	   0.000000	   0.706049	   0.000000; % NG
	2	 0.0	 0.0	 3	   0.000000	   0.723837	   0.000000; % COW
	2	 0.0	 0.0	 3	   0.000000	   0.872882	   0.000000; % NG
	2	 0.0	 0.0	 3	   0.000000	   0.629478	   0.000000; % NG
	2	 0.0	 0.0	 3	   0.000000	   0.778076	   0.000000; % NG
	2	 0.0	 0.0	 3	   0.000000	   0.901126	   0.000000; % COW
	2	 0.0	 0.0	 3	   0.000000	   0.818159	   0.000000; % NG
	2	 0.0	 0.0	 3	   0.000000	   6.456017	   0.000000; % PEL
	2	 0.0	 0.0	 3	   0.000000	   1.188518	   0.000000; % COW
	2	 0.0	 0.0	 3	   0.000000	   1.133154	   0.000000; % NG
	2	 0.0	 0.0	 3	   0.000000	   0.972668	   0.000000; % NG
	2	 0.0	 0.0	 3	   0.000000	   0.775836	   0.000000; % NG
	2	 0.0	 0.0	 3	   0.000000	   0.745895	   0.000000; % COW
	2	 0.0	 0.0	 3	   0.000000	   1.101803	   0.000000; % NG
	2	 0.0	 0.0	 3	   0.000000	   1.157914	   0.000000; % NG
	2	 0.0	 0.0	 3	   0.000000	   1.280764	   0.000000; % NG
	2	 0.0	 0.0	 3	   0.000000	   1.081489	   0.000000; % NG
	2	 0.0	 0.0	 3	   0.000000	   0.699268	   0.000000; % NG
	2	 0.0	 0.0	 3	   0.000000	   1.103490	   0.000000; % NG
	2	 0.0	 0.0	 3	   0.000000	   1.040521	   0.000000; % NG
	2	 0.0	 0.0	 3	   0.000000	   1.178033	   0.000000; % NG
	2	 0.0	 0.0	 3	   0.000000	   1.222217	   0.000000; % NG
	2	 0.0	 0.0	 3	   0.000000	   1.163768	   0.000000; % COW
	2	 0.0	 0.0	 3	   0.000000	   0.717500	   0.000000; % NG
	2	 0.0	 0.0	 3	   0.000000	   0.639497	   0.000000; % COW
	2	 0.0	 0.0	 3	   0.000000	   0.691112	   0.000000; % NG
	2	 0.0	 0.0	 3	   0.000000	   0.875057	   0.000000; % COW
	2	 0.0	 0.0	 3	   0.000000	   0.747977	   0.000000; % COW
	2	 0.0	 0.0	 3	   0.000000	   0.878235	   0.000000; % NG
	2	 0.0	 0.0	 3	   0.000000	   1.228453	   0.000000; % NG
	2	 0.0	 0.0	 3	   0.000000	   0.932284	   0.000000; % NG
	2	 0.0	 0.0	 3	   0.000000	   0.809538	   0.000000; % NG
	2	 0.0	 0.0	 3	   0.000000	   0.859031	   0.000000; % NG
	2	 0.0	 0.0	 3	   0.000000	   1.121267	   0.000000; % NG
	2	 0.0	 0.0	 3	   0.000000	   0.617631	   0.000000; % COW
	2	 0.0	 0.0	 3	   0.000000	   0.739372	   0.000000; % NG
	2	 0.0	 0.0	 3	   0.000000	   0.933555	   0.000000; % NG
	2	 0.0	 0.0	 3	   0.000000	   0.591629	   0.000000; % COW
	2	 0.0	 0.0	 3	   0.000000	   1.046111	   0.000000; % NG
	2	 0.0	 0.0	 3	   0.000000	   0.928925	   0.000000; % NG
	2	 0.0	 0.0	 3	   0.000000	   0.800252	   0.000000; % NG
	2	 0.0	 0.0	 3	   0.000000	   0.658068	   0.000000; % COW
	2	 0.0	 0.0	 3	   0.000000	   1.112812	   0.000000; % NG
	2	 0.0	 0.0	 3	   0.000000	   1.104532	   0.000000; % NG
	2	 0.0	 0.0	 3	   0.000000	   1.307689	   0.000000; % NG
	2	 0.0	 0.0	 3	   0.000000	   0.795816	   0.000000; % COW
	2	 0.0	 0.0	 3	   0.000000	   1.124848	   0.000000; % NG
	2	 0.0	 0.0	 3	   0.000000	   0.993066	   0.000000; % NG
	2	 0.0	 0.0	 3	   0.000000	   1.132365	   0.000000; % NG
	2	 0.0	 0.0	 3	   0.000000	   1.117229	   0.000000; % NG
	2	 0.0	 0.0	 3	   0.000000	   0.610249	   0.000000; % COW
	2	 0.0	 0.0	 3	   0.000000	   0.952847	   0.000000; % NG
	2	 0.0	 0.0	 3	   0.000000	   1.359521	   0.000000; % NG
	2	 0.0	 0.0	 3	   0.000000	   0.961992	   0.000000; % NG
	2	 0.0	 0.0	 3	   0.000000	   0.542679	   0.000000; % COW
	2	 0.0	 0.0	 3	   0.000000	   0.806481	   0.000000; % NG
	2	 0.0	 0.0	 3	   0.000000	   0.938831	   0.000000; % NG
	2	 0.0	 0.0	 3	   0.000000	   1.632085	   0.000000; % NG
	2	 0.0	 0.0	 3	   0.000000	   0.671288	   0.000000; % NG
	2	 0.0	 0.0	 3	   0.000000	   1.186147	   0.000000; % NG
	2	 0.0	 0.0	 3	   0.000000	   6.716447	   0.000000; % PEL
	2	 0.0	 0.0	 3	   0.000000	   1.068220	   0.000000; % NG
	2	 0.0	 0.0	 3	   0.000000	   0.923376	   0.000000; % NG
	2	 0.0	 0.0	 3	   0.000000	   7.304505	   0.000000; % PEL
	2	 0.0	 0.0	 3	   0.000000	   6.917735	   0.000000; % PEL
	2	 0.0	 0.0	 3	   0.000000	   1.056810	   0.000000; % NG
	2	 0.0	 0.0	 3	   0.000000	   0.915868	   0.000000; % NG
	2	 0.0	 0.0	 3	   0.000000	   1.163248	   0.000000; % NG
	2	 0.0	 0.0	 3	   0.000000	   1.136804	   0.000000; % NG
	2	 0.0	 0.0	 3	   0.000000	   0.967623	   0.000000; % NG
	2	 0.0	 0.0	 3	   0.000000	   1.277606	   0.000000; % NG
	2	 0.0	 0.0	 3	   0.000000	   0.937817	   0.000000; % NG
	2	 0.0	 0.0	 3	   0.000000	   0.862705	   0.000000; % COW
	2	 0.0	 0.0	 3	   0.000000	   6.397481	   0.000000; % PEL
	2	 0.0	 0.0	 3	   0.000000	   6.959591	   0.000000; % PEL
	2	 0.0	 0.0	 3	   0.000000	   0.995766	   0.000000; % NG
	2	 0.0	 0.0	 3	   0.000000	   1.110229	   0.000000; % NG
	2	 0.0	 0.0	 3	   0.000000	   6.989227	   0.000000; % PEL
	2	 0.0	 0.0	 3	   0.000000	   0.986933	   0.000000; % NG
	2	 0.0	 0.0	 3	   0.000000	   1.040077	   0.000000; % NG
	2	 0.0	 0.0	 3	   0.000000	   7.304387	   0.000000; % PEL
	2	 0.0	 0.0	 3	   0.000000	   0.863428	   0.000000; % COW
	2	 0.0	 0.0	 3	   0.000000	   1.160539	   0.000000; % NG
	2	 0.0	 0.0	 3	   0.000000	   1.480553	   0.000000; % NG
	2	 0.0	 0.0	 3	   0.000000	   1.618551	   0.000000; % NG
	2	 0.0	 0.0	 3	   0.000000	   1.118730	   0.000000; % NG
	2	 0.0	 0.0	 3	   0.000000	   7.100755	   0.000000; % PEL
	2	 0.0	 0.0	 3	   0.000000	   6.775216	   0.000000; % PEL
	2	 0.0	 0.0	 3	   0.000000	   0.975999	   0.000000; % NG
	2	 0.0	 0.0	 3	   0.000000	   6.784547	   0.000000; % PEL
	2	 0.0	 0.0	 3	   0.000000	   0.912006	   0.000000; % NG
	2	 0.0	 0.0	 3	   0.000000	   1.026056	   0.000000; % NG
	2	 0.0	 0.0	 3	   0.000000	   1.186992	   0.000000; % NG
	2	 0.0	 0.0	 3	   0.000000	   0.802729	   0.000000; % NG
	2	 0.0	 0.0	 3	   0.000000	   1.057319	   0.000000; % NG
	2	 0.0	 0.0	 3	   0.000000	   7.404267	   0.000000; % PEL
	2	 0.0	 0.0	 3	   0.000000	   1.336034	   0.000000; % NG
	2	 0.0	 0.0	 3	   0.000000	   0.821466	   0.000000; % NG
	2	 0.0	 0.0	 3	   0.000000	   6.856469	   0.000000; % PEL
	2	 0.0	 0.0	 3	   0.000000	   1.221921	   0.000000; % NG
	2	 0.0	 0.0	 3	   0.000000	   7.343060	   0.000000; % PEL
	2	 0.0	 0.0	 3	   0.000000	   7.331127	   0.000000; % PEL
	2	 0.0	 0.0	 3	   0.000000	   1.552466	   0.000000; % NG
	2	 0.0	 0.0	 3	   0.000000	   1.122354	   0.000000; % NG
	2	 0.0	 0.0	 3	   0.000000	   7.219435	   0.000000; % PEL
	2	 0.0	 0.0	 3	   0.000000	   0.890597	   0.000000; % NG
	2	 0.0	 0.0	 3	   0.000000	   7.051812	   0.000000; % PEL
	2	 0.0	 0.0	 3	   0.000000	   6.912968	   0.000000; % PEL
	2	 0.0	 0.0	 3	   0.000000	   1.326460	   0.000000; % NG
	2	 0.0	 0.0	 3	   0.000000	   0.876935	   0.000000; % COW
	2	 0.0	 0.0	 3	   0.000000	   1.155139	   0.000000; % NG
	2	 0.0	 0.0	 3	   0.000000	   0.826679	   0.000000; % NG
	2	 0.0	 0.0	 3	   0.000000	   1.220858	   0.000000; % NG
	2	 0.0	 0.0	 3	   0.000000	   7.090295	   0.000000; % PEL
	2	 0.0	 0.0	 3	   0.000000	   7.202239	   0.000000; % PEL
	2	 0.0	 0.0	 3	   0.000000	   0.913299	   0.000000; % NG
	2	 0.0	 0.0	 3	   0.000000	   1.002943	   0.000000; % NG
	2	 0.0	 0.0	 3	   0.000000	   0.748985	   0.000000; % NG
	2	 0.0	 0.0	 3	   0.000000	   7.108396	   0.000000; % PEL
	2	 0.0	 0.0	 3	   0.000000	   6.907051	   0.000000; % PEL
	2	 0.0	 0.0	 3	   0.000000	   0.754041	   0.000000; % COW
	2	 0.0	 0.0	 3	   0.000000	   0.953355	   0.000000; % NG
	2	 0.0	 0.0	 3	   0.000000	   0.586644	   0.000000; % COW
	2	 0.0	 0.0	 3	   0.000000	   6.702574	   0.000000; % PEL
	2	 0.0	 0.0	 3	   0.000000	   1.126409	   0.000000; % NG
	2	 0.0	 0.0	 3	   0.000000	   1.425084	   0.000000; % NG
	2	 0.0	 0.0	 3	   0.000000	   0.950812	   0.000000; % NG
	2	 0.0	 0.0	 3	   0.000000	   1.102734	   0.000000; % NG
	2	 0.0	 0.0	 3	   0.000000	   7.320181	   0.000000; % PEL
	2	 0.0	 0.0	 3	   0.000000	   0.810809	   0.000000; % COW
	2	 0.0	 0.0	 3	   0.000000	   6.959642	   0.000000; % PEL
	2	 0.0	 0.0	 3	   0.000000	   1.258392	   0.000000; % NG
	2	 0.0	 0.0	 3	   0.000000	   7.229477	   0.000000; % PEL
	2	 0.0	 0.0	 3	   0.000000	   0.978162	   0.000000; % NG
	2	 0.0	 0.0	 3	   0.000000	   1.183838	   0.000000; % NG
	2	 0.0	 0.0	 3	   0.000000	   1.046013	   0.000000; % NG
	2	 0.0	 0.0	 3	   0.000000	   7.289509	   0.000000; % PEL
	2	 0.0	 0.0	 3	   0.000000	   1.085333	   0.000000; % NG
	2	 0.0	 0.0	 3	   0.000000	   6.656581	   0.000000; % PEL
	2	 0.0	 0.0	 3	   0.000000	   0.841517	   0.000000; % COW
	2	 0.0	 0.0	 3	   0.000000	   1.092761	   0.000000; % NG
	2	 0.0	 0.0	 3	   0.000000	   7.009260	   0.000000; % PEL
	2	 0.0	 0.0	 3	   0.000000	   0.339218	   0.000000; % NG
	2	 0.0	 0.0	 3	   0.000000	   1.109117	   0.000000; % NG
	2	 0.0	 0.0	 3	   0.000000	   0.909019	   0.000000; % NG
	2	 0.0	 0.0	 3	   0.000000	   6.572729	   0.000000; % PEL
	2	 0.0	 0.0	 3	   0.000000	   0.925578	   0.000000; % COW
	2	 0.0	 0.0	 3	   0.000000	   1.168492	   0.000000; % NG
	2	 0.0	 0.0	 3	   0.000000	   0.872077	   0.000000; % NG
	2	 0.0	 0.0	 3	   0.000000	   7.158379	   0.000000; % PEL
	2	 0.0	 0.0	 3	   0.000000	   7.487954	   0.000000; % PEL
	2	 0.0	 0.0	 3	   0.000000	   6.905797	   0.000000; % PEL
	2	 0.0	 0.0	 3	   0.000000	   0.960351	   0.000000; % NG
	2	 0.0	 0.0	 3	   0.000000	   6.812366	   0.000000; % PEL
	2	 0.0	 0.0	 3	   0.000000	   7.246187	   0.000000; % PEL
	2	 0.0	 0.0	 3	   0.000000	   0.995146	   0.000000; % NG
	2	 0.0	 0.0	 3	   0.000000	   1.230108	   0.000000; % NG
	2	 0.0	 0.0	 3	   0.000000	   7.039012	   0.000000; % PEL
	2	 0.0	 0.0	 3	   0.000000	   7.144039	   0.000000; % PEL
	2	 0.0	 0.0	 3	   0.000000	   6.710412	   0.000000; % PEL
	2	 0.0	 0.0	 3	   0.000000	   0.862838	   0.000000; % NG
	2	 0.0	 0.0	 3	   0.000000	   0.991666	   0.000000; % NG
	2	 0.0	 0.0	 3	   0.000000	   7.005281	   0.000000; % PEL
	2	 0.0	 0.0	 3	   0.000000	   0.939528	   0.000000; % NG
	2	 0.0	 0.0	 3	   0.000000	   6.553852	   0.000000; % PEL
	2	 0.0	 0.0	 3	   0.000000	   0.992678	   0.000000; % NG
	2	 0.0	 0.0	 3	   0.000000	   0.919547	   0.000000; % COW
	2	 0.0	 0.0	 3	   0.000000	   1.216939	   0.000000; % NG
	2	 0.0	 0.0	 3	   0.000000	   6.371175	   0.000000; % PEL
	2	 0.0	 0.0	 3	   0.000000	   6.592291	   0.000000; % PEL
	2	 0.0	 0.0	 3	   0.000000	   6.251853	   0.000000; % PEL
...
];

%% branch data
%	fbus	tbus	r	x	b	rateA	rateB	rateC	ratio	angle	status	angmin	angmax
mpc.branch = [
	9	 11	 0.00064	 0.0305	 0.0	 400.0	 400.0	 400.0	 1.10224	 0.0	 1	 -30.0	 30.0;
	13	 12	 0.00069	 0.03946	 0.0	 250.0	 250.0	 250.0	 0.9999	 0.0	 1	 -30.0	 30.0;
	21	 19	 0.00088	 0.05709	 0.0	 330.0	 330.0	 330.0	 0.9999	 0.0	 1	 -30.0	 30.0;
	36	 35	 0.0007	 0.03652	 0.0	 250.0	 250.0	 250.0	 0.9999	 0.0	 1	 -30.0	 30.0;
	37	 40	 0.00036	 0.02519	 0.0	 500.0	 500.0	 500.0	 1.0686	 0.0	 1	 -30.0	 30.0;
	38	 41	 0.00036	 0.02519	 0.0	 500.0	 500.0	 500.0	 1.08671	 0.0	 1	 -30.0	 30.0;
	55	 56	 0.00034	 0.02097	 0.0	 500.0	 500.0	 500.0	 1.0755	 0.0	 1	 -30.0	 30.0;
	59	 61	 0.00034	 0.02097	 0.0	 500.0	 500.0	 500.0	 1.05955	 0.0	 1	 -30.0	 30.0;
	70	 72	 0.00081	 0.03	 0.0	 400.0	 400.0	 400.0	 1.0876	 0.0	 1	 -30.0	 30.0;
	107	 109	 0.00075	 0.02445	 -0.00832	 330.0	 330.0	 330.0	 1.06467	 0.0	 1	 -30.0	 30.0;
	108	 110	 0.0004	 0.0253	 0.0	 500.0	 500.0	 500.0	 1.07013	 0.0	 1	 -30.0	 30.0;
	144	 147	 0.00053	 0.02875	 -0.016	 400.0	 400.0	 400.0	 1.07702	 0.0	 1	 -30.0	 30.0;
	173	 174	 0.00064	 0.0305	 0.0	 400.0	 400.0	 400.0	 1.06172	 0.0	 1	 -30.0	 30.0;
	182	 183	 0.00023	 0.023	 0.0	 500.0	 500.0	 500.0	 1.07426	 0.0	 1	 -30.0	 30.0;
	181	 184	 0.00023	 0.023	 0.0	 500.0	 500.0	 500.0	 1.07426	 0.0	 1	 -30.0	 30.0;
	188	 187	 0.00032	 0.04392	 0.0	 330.0	 330.0	 330.0	 0.9999	 0.0	 1	 -30.0	 30.0;
	191	 193	 0.0003	 0.02732	 0.0	 500.0	 500.0	 500.0	 1.10871	 0.0	 1	 -30.0	 30.0;
	198	 200	 0.00035	 0.02375	 0.0	 500.0	 500.0	 500.0	 1.07313	 0.0	 1	 -30.0	 30.0;
	212	 213	 0.00051	 0.0275	 0.0	 400.0	 400.0	 400.0	 1.10394	 0.0	 1	 -30.0	 30.0;
	217	 215	 0.00084	 0.06858	 0.0	 250.0	 250.0	 250.0	 0.9999	 0.0	 1	 -30.0	 30.0;
	220	 222	 0.00033	 0.02711	 0.0	 500.0	 500.0	 500.0	 1.08613	 0.0	 1	 -30.0	 30.0;
	224	 222	 0.00032	 0.0464	 0.0	 330.0	 330.0	 330.0	 0.9999	 0.0	 1	 -30.0	 30.0;
	231	 229	 0.00113	 0.05647	 0.0	 330.0	 330.0	 330.0	 0.9999	 0.0	 1	 -30.0	 30.0;
	228	 230	 0.00075	 0.02469	 -0.008	 330.0	 330.0	 330.0	 1.04544	 0.0	 1	 -30.0	 30.0;
	3010	 183	 0.00029	 0.00317	 0.09184	 773.0	 773.0	 773.0	 0.0	 0.0	 1	 -30.0	 30.0;
	3010	 184	 0.0003	 0.00326	 0.09536	 771.0	 771.0	 771.0	 0.0	 0.0	 1	 -30.0	 30.0;
	244	 84	 0.01475	 0.08595	 0.13036	 315.0	 315.0	 315.0	 0.0	 0.0	 1	 -30.0	 30.0;
	3007	 92	 0.01244	 0.06959	 0.1181	 309.0	 309.0	 309.0	 0.0	 0.0	 1	 -30.0	 30.0;
	3007	 122	 0.01207	 0.06905	 0.11519	 312.0	 312.0	 312.0	 0.0	 0.0	 1	 -30.0	 30.0;
	146	 3008	 0.00168	 0.01604	 0.51488	 724.0	 724.0	 724.0	 0.0	 0.0	 1	 -30.0	 30.0;
	3011	 172	 0.0018	 0.01616	 0.0484	 387.0	 387.0	 387.0	 0.0	 0.0	 1	 -30.0	 30.0;
	3011	 173	 0.0018	 0.01616	 0.0484	 387.0	 387.0	 387.0	 0.0	 0.0	 1	 -30.0	 30.0;
	3012	 63	 0.00223	 0.02209	 0.69011	 737.0	 737.0	 737.0	 0.0	 0.0	 1	 -30.0	 30.0;
	3012	 64	 0.00223	 0.02209	 0.69011	 737.0	 737.0	 737.0	 0.0	 0.0	 1	 -30.0	 30.0;
	99	 3006	 0.00293	 0.03054	 0.95472	 755.0	 755.0	 755.0	 0.0	 0.0	 1	 -30.0	 30.0;
	58	 30	 0.01174	 0.07014	 0.12689	 319.0	 319.0	 319.0	 0.0	 0.0	 1	 -30.0	 30.0;
	37	 107	 0.00919	 0.06614	 0.10451	 348.0	 348.0	 348.0	 0.0	 0.0	 1	 -30.0	 30.0;
	38	 108	 0.00822	 0.05767	 0.0982	 344.0	 344.0	 344.0	 0.0	 0.0	 1	 -30.0	 30.0;
	169	 42	 0.01698	 0.12459	 0.1957	 256.0	 256.0	 256.0	 0.0	 0.0	 1	 -30.0	 30.0;
	155	 48	 0.01298	 0.06738	 0.10284	 298.0	 298.0	 298.0	 0.0	 0.0	 1	 -30.0	 30.0;
	154	 27	 0.01068	 0.0475	 0.09495	 277.0	 277.0	 277.0	 0.0	 0.0	 1	 -30.0	 30.0;
	191	 28	 0.01436	 0.10729	 0.16081	 298.0	 298.0	 298.0	 0.0	 0.0	 1	 -30.0	 30.0;
	55	 126	 0.01488	 0.08161	 0.1148	 306.0	 306.0	 306.0	 0.0	 0.0	 1	 -30.0	 30.0;
	54	 108	 0.01116	 0.07171	 0.10367	 330.0	 330.0	 330.0	 0.0	 0.0	 1	 -30.0	 30.0;
	207	 100	 0.00552	 0.05948	 0.17077	 422.0	 422.0	 422.0	 0.0	 0.0	 1	 -30.0	 30.0;
	238	 192	 0.01118	 0.06597	 0.10778	 317.0	 317.0	 317.0	 0.0	 0.0	 1	 -30.0	 30.0;
	226	 191	 0.01682	 0.08909	 0.12993	 301.0	 301.0	 301.0	 0.0	 0.0	 1	 -30.0	 30.0;
	225	 192	 0.01384	 0.08702	 0.13484	 327.0	 327.0	 327.0	 0.0	 0.0	 1	 -30.0	 30.0;
	242	 195	 0.01517	 0.09938	 0.14492	 274.0	 274.0	 274.0	 0.0	 0.0	 1	 -30.0	 30.0;
	59	 16	 0.01347	 0.07316	 0.13418	 305.0	 305.0	 305.0	 0.0	 0.0	 1	 -30.0	 30.0;
	233	 25	 0.01403	 0.10413	 0.15949	 307.0	 307.0	 307.0	 0.0	 0.0	 1	 -30.0	 30.0;
	117	 70	 0.00374	 0.0438	 0.10096	 439.0	 439.0	 439.0	 0.0	 0.0	 1	 -30.0	 30.0;
	190	 99	 0.00194	 0.02007	 0.54307	 753.0	 753.0	 753.0	 0.0	 0.0	 1	 -30.0	 30.0;
...